11048796
  -OEChem-07232422593D

 48 51  0     0  0  0  0  0  0999 V2000
    3.8440   -2.0637   -1.0976 Cl  0  0  0  0  0  0  0  0  0  0  0  0
    0.7639    1.4888   -2.3709 F   0  0  0  0  0  0  0  0  0  0  0  0
   -1.3576   -2.4787   -0.6385 O   0  0  0  0  0  0  0  0  0  0  0  0
   -1.4835    1.5526   -0.7666 O   0  0  0  0  0  0  0  0  0  0  0  0
   -0.9816   -2.7513    2.0567 O   0  0  0  0  0  0  0  0  0  0  0  0
    3.1882    0.8685   -1.2020 O   0  0  0  0  0  0  0  0  0  0  0  0
   -4.3523   -0.1121   -1.9576 O   0  0  0  0  0  0  0  0  0  0  0  0
   -1.9417   -1.8319    1.5805 N   0  0  0  0  0  0  0  0  0  0  0  0
   -3.4918   -1.1294   -1.5215 N   0  0  0  0  0  0  0  0  0  0  0  0
   -0.2095    0.9909    1.0870 N   0  0  0  0  0  0  0  0  0  0  0  0
    2.1647    0.6428    0.8655 N   0  0  0  0  0  0  0  0  0  0  0  0
   -3.3111    0.4408    0.3172 C   0  0  0  0  0  0  0  0  0  0  0  0
   -2.5522    1.5655    0.0790 C   0  0  0  0  0  0  0  0  0  0  0  0
   -2.9668   -0.8395   -0.3635 C   0  0  0  0  0  0  0  0  0  0  0  0
   -2.0246   -1.7726    0.2926 C   0  0  0  0  0  0  0  0  0  0  0  0
   -4.3932    0.4457    1.1716 C   0  0  0  0  0  0  0  0  0  0  0  0
   -0.4333   -3.4484   -0.1302 C   0  0  0  0  0  0  0  0  0  0  0  0
   -2.8910    2.7538    0.7261 C   0  0  0  0  0  0  0  0  0  0  0  0
   -0.8989   -3.9085    1.2291 C   0  0  0  0  0  0  0  0  0  0  0  0
   -4.7319    1.6340    1.8187 C   0  0  0  0  0  0  0  0  0  0  0  0
   -3.9809    2.7881    1.5961 C   0  0  0  0  0  0  0  0  0  0  0  0
   -0.2445    1.2481   -0.2304 C   0  0  0  0  0  0  0  0  0  0  0  0
    0.8475    1.2271   -1.0624 C   0  0  0  0  0  0  0  0  0  0  0  0
    2.0441    0.9139   -0.4505 C   0  0  0  0  0  0  0  0  0  0  0  0
    4.3636    0.5503   -0.5510 C   0  0  0  0  0  0  0  0  0  0  0  0
    4.7736   -0.7686   -0.4386 C   0  0  0  0  0  0  0  0  0  0  0  0
    5.1162    1.5856   -0.0180 C   0  0  0  0  0  0  0  0  0  0  0  0
    1.0151    0.6983    1.5647 C   0  0  0  0  0  0  0  0  0  0  0  0
    5.9664   -1.0604    0.2232 C   0  0  0  0  0  0  0  0  0  0  0  0
    6.3088    1.2938    0.6439 C   0  0  0  0  0  0  0  0  0  0  0  0
    6.7340   -0.0292    0.7645 C   0  0  0  0  0  0  0  0  0  0  0  0
   -4.8837   -0.4945   -3.2170 C   0  0  0  0  0  0  0  0  0  0  0  0
   -4.9820   -0.4494    1.3485 H   0  0  0  0  0  0  0  0  0  0  0  0
   -0.3886   -4.2848   -0.8334 H   0  0  0  0  0  0  0  0  0  0  0  0
    0.5521   -2.9729   -0.0822 H   0  0  0  0  0  0  0  0  0  0  0  0
   -2.3117    3.6576    0.5571 H   0  0  0  0  0  0  0  0  0  0  0  0
   -0.1816   -4.6040    1.6739 H   0  0  0  0  0  0  0  0  0  0  0  0
   -1.8804   -4.3949    1.1901 H   0  0  0  0  0  0  0  0  0  0  0  0
   -5.5807    1.6607    2.4959 H   0  0  0  0  0  0  0  0  0  0  0  0
   -4.2448    3.7134    2.0998 H   0  0  0  0  0  0  0  0  0  0  0  0
    4.7906    2.6177   -0.1106 H   0  0  0  0  0  0  0  0  0  0  0  0
    6.3111   -2.0862    0.3258 H   0  0  0  0  0  0  0  0  0  0  0  0
    6.9066    2.0968    1.0651 H   0  0  0  0  0  0  0  0  0  0  0  0
    1.0822    0.4831    2.6240 H   0  0  0  0  0  0  0  0  0  0  0  0
    7.6626   -0.2561    1.2799 H   0  0  0  0  0  0  0  0  0  0  0  0
   -5.4527   -1.4247   -3.1235 H   0  0  0  0  0  0  0  0  0  0  0  0
   -5.5560    0.2949   -3.5632 H   0  0  0  0  0  0  0  0  0  0  0  0
   -4.0788   -0.6164   -3.9484 H   0  0  0  0  0  0  0  0  0  0  0  0
  1 26  1  0  0  0  0
  2 23  1  0  0  0  0
  3 15  1  0  0  0  0
  3 17  1  0  0  0  0
  4 13  1  0  0  0  0
  4 22  1  0  0  0  0
  5  8  1  0  0  0  0
  5 19  1  0  0  0  0
  6 24  1  0  0  0  0
  6 25  1  0  0  0  0
  7  9  1  0  0  0  0
  7 32  1  0  0  0  0
  8 15  2  0  0  0  0
  9 14  2  0  0  0  0
 10 22  1  0  0  0  0
 10 28  2  0  0  0  0
 11 24  2  0  0  0  0
 11 28  1  0  0  0  0
 12 13  1  0  0  0  0
 12 14  1  0  0  0  0
 12 16  2  0  0  0  0
 13 18  2  0  0  0  0
 14 15  1  0  0  0  0
 16 20  1  0  0  0  0
 16 33  1  0  0  0  0
 17 19  1  0  0  0  0
 17 34  1  0  0  0  0
 17 35  1  0  0  0  0
 18 21  1  0  0  0  0
 18 36  1  0  0  0  0
 19 37  1  0  0  0  0
 19 38  1  0  0  0  0
 20 21  2  0  0  0  0
 20 39  1  0  0  0  0
 21 40  1  0  0  0  0
 22 23  2  0  0  0  0
 23 24  1  0  0  0  0
 25 26  1  0  0  0  0
 25 27  2  0  0  0  0
 26 29  2  0  0  0  0
 27 30  1  0  0  0  0
 27 41  1  0  0  0  0
 28 44  1  0  0  0  0
 29 31  1  0  0  0  0
 29 42  1  0  0  0  0
 30 31  2  0  0  0  0
 30 43  1  0  0  0  0
 31 45  1  0  0  0  0
 32 46  1  0  0  0  0
 32 47  1  0  0  0  0
 32 48  1  0  0  0  0
M  END
> <PUBCHEM_COMPOUND_CID>
11048796

> <PUBCHEM_CONFORMER_RMSD>
1

> <PUBCHEM_CONFORMER_DIVERSEORDER>
1
282
253
288
180
226
43
356
311
8
315
233
271
154
360
222
390
306
307
318
90
378
37
290
155
370
392
383
261
76
330
270
189
338
142
112
72
247
135
168
308
35
128
99
297
89
116
49
179
354
16
237
175
153
38
332
309
259
241
157
149
352
341
85
176
377
280
334
132
321
327
184
304
59
111
323
54
81
278
139
386
219
80
364
194
294
238
144
9
346
45
65
31
310
196
349
268
117
187
380
97
113
192
66
355
227
362
25
372
151
15
92
337
207
64
48
22
215
7
358
13
397
167
21
124
331
244
138
267
385
374
182
379
224
384
251
217
129
234
63
159
389
127
73
393
263
46
343
373
102
44
32
115
193
325
391
359
161
95
126
339
250
305
191
41
185
27
345
57
122
260
83
293
236
248
264
235
368
265
344
60
395
29
130
291
52
123
367
279
147
277
160
361
118
320
171
316
303
387
300
82
84
295
36
178
363
143
211
141
218
228
50
39
208
114
4
75
183
221
394
242
30
336
317
28
255
262
209
145
319
170
381
274
273
301
94
47
342
197
3
240
335
165
289
71
98
230
200
258
296
210
70
256
107
239
51
214
326
313
119
17
42
173
284
133
150
18
254
109
324
266
190
101
166
186
11
105
206
108
61
172
40
203
199
329
77
146
348
216
79
188
229
257
223
357
152
202
328
243
68
285
69
131
371
350
67
177
299
283
302
205
272
195
20
376
340
162
276
87
134
14
140
231
125
24
312
245
55
220
23
388
19
396
347
91
287
174
314
10
104
100
204
169
12
249
2
269
34
120
213
353
369
103
292
366
33
232
78
148
252
93
26
5
333
246
225
110
201
322
382
96
86
53
275
281
58
298
56
137
212
375
88
156
164
6
136
198
62
121
286
158
74
351
181
106
365
163

> <PUBCHEM_MMFF94_PARTIAL_CHARGES>
41
1 -0.18
10 -0.62
11 -0.62
12 0.09
13 0.08
14 0.36
15 0.6
16 -0.15
17 0.28
18 -0.15
19 0.28
2 -0.19
20 -0.15
21 -0.15
22 0.39
23 0.19
24 0.39
25 0.08
26 0.18
27 -0.15
28 0.47
29 -0.15
3 -0.43
30 -0.15
31 -0.15
32 0.28
33 0.15
36 0.15
39 0.15
4 -0.17
40 0.15
41 0.15
42 0.15
43 0.15
44 0.15
45 0.15
5 -0.22
6 -0.17
7 -0.22
8 -0.51
9 -0.51

> <PUBCHEM_EFFECTIVE_ROTOR_COUNT>
7.8

> <PUBCHEM_PHARMACOPHORE_FEATURES>
7
1 4 acceptor
1 9 acceptor
3 10 11 28 cation
6 10 11 22 23 24 28 rings
6 12 13 16 18 20 21 rings
6 25 26 27 29 30 31 rings
6 3 5 8 15 17 19 rings

> <PUBCHEM_HEAVY_ATOM_COUNT>
32

> <PUBCHEM_ATOM_DEF_STEREO_COUNT>
0

> <PUBCHEM_ATOM_UDEF_STEREO_COUNT>
0

> <PUBCHEM_BOND_DEF_STEREO_COUNT>
1

> <PUBCHEM_BOND_UDEF_STEREO_COUNT>
0

> <PUBCHEM_ISOTOPIC_ATOM_COUNT>
0

> <PUBCHEM_COMPONENT_COUNT>
1

> <PUBCHEM_CACTVS_TAUTO_COUNT>
1

> <PUBCHEM_CONFORMER_ID>
00A8975C00000001

> <PUBCHEM_MMFF94_ENERGY>
111.072

> <PUBCHEM_FEATURE_SELFOVERLAP>
35.523

> <PUBCHEM_SHAPE_FINGERPRINT>
11135926 11 18187646869788361286
12107698 1 17417801885718017737
12422481 6 18042697113061761938
133893 2 17900242132136793963
13583140 156 17846218912464448760
14659021 117 18057871627328746075
14747281 78 16446419457883569487
14840074 17 17822016384929722416
15361156 5 18129398042072234548
16120349 306 18335702685208307450
16994733 274 15983996821834661433
19958102 18 18334008359803051262
21424621 283 15553065216728356593
23559900 14 18266173023554695856
3383291 50 18335987566079019643
3411729 13 17909001911247678513
3633792 109 18335966615644703093
4015057 19 18129653235558907456
4073 2 18410862088354619040
4340502 62 18271534087521658392
5265222 85 18269295554962073788
5364581 5 18055344993407694912
5924683 9 17847056697005746125
7226269 152 17917154901130313648

> <PUBCHEM_SHAPE_MULTIPOLES>
603.87
13.28
3.5
2.04
17.76
2.73
0.98
-3.86
0.26
-2.41
-1.42
-2.87
0.43
-1.14

> <PUBCHEM_SHAPE_SELFOVERLAP>
1312.968

> <PUBCHEM_SHAPE_VOLUME>
328.5

> <PUBCHEM_COORDINATE_TYPE>
2
5
10

$$$$
