45380417
  -OEChem-07232422293D

 50 52  0     0  0  0  0  0  0999 V2000
    8.3187   -1.6100   -0.3032 Cl  0  0  0  0  0  0  0  0  0  0  0  0
   -0.6865    0.9888   -0.5080 O   0  0  0  0  0  0  0  0  0  0  0  0
   -3.3901   -2.7479    0.3093 O   0  0  0  0  0  0  0  0  0  0  0  0
   -2.9022    1.7627    1.6512 O   0  0  0  0  0  0  0  0  0  0  0  0
   -2.6792   -2.3160    2.4565 O   0  0  0  0  0  0  0  0  0  0  0  0
    1.2726    1.9911    0.4327 N   0  0  0  0  0  0  0  0  0  0  0  0
    2.5969    1.8189    0.5832 N   0  0  0  0  0  0  0  0  0  0  0  0
   -2.6726    0.0783   -1.4479 C   0  0  0  0  0  0  0  0  0  0  0  0
   -1.2053   -0.1155   -1.2368 C   0  0  0  0  0  0  0  0  0  0  0  0
    0.6611    0.9855   -0.2570 C   0  0  0  0  0  0  0  0  0  0  0  0
   -3.5885   -0.1122   -0.4133 C   0  0  0  0  0  0  0  0  0  0  0  0
    2.8244    0.6584   -0.0375 C   0  0  0  0  0  0  0  0  0  0  0  0
    1.6546    0.0939   -0.5804 C   0  0  0  0  0  0  0  0  0  0  0  0
   -3.1191    0.4579   -2.7136 C   0  0  0  0  0  0  0  0  0  0  0  0
    4.1538    0.1099   -0.1015 C   0  0  0  0  0  0  0  0  0  0  0  0
   -4.9511    0.0767   -0.6446 C   0  0  0  0  0  0  0  0  0  0  0  0
   -3.1491   -0.5132    0.9336 C   0  0  0  0  0  0  0  0  0  0  0  0
   -4.4816    0.6471   -2.9448 C   0  0  0  0  0  0  0  0  0  0  0  0
    0.6449    3.1676    0.9880 C   0  0  0  0  0  0  0  0  0  0  0  0
   -5.3975    0.4565   -1.9103 C   0  0  0  0  0  0  0  0  0  0  0  0
    4.3359   -1.2721   -0.1526 C   0  0  0  0  0  0  0  0  0  0  0  0
    5.2596    0.9599   -0.1128 C   0  0  0  0  0  0  0  0  0  0  0  0
    5.6238   -1.8041   -0.2149 C   0  0  0  0  0  0  0  0  0  0  0  0
    6.5476    0.4281   -0.1751 C   0  0  0  0  0  0  0  0  0  0  0  0
   -3.0395   -1.9421    1.3493 C   0  0  0  0  0  0  0  0  0  0  0  0
   -2.8407    0.4095    1.8586 C   0  0  0  0  0  0  0  0  0  0  0  0
    6.7296   -0.9539   -0.2261 C   0  0  0  0  0  0  0  0  0  0  0  0
   -3.3213   -4.1548    0.5640 C   0  0  0  0  0  0  0  0  0  0  0  0
   -3.1994    2.4513    2.8541 C   0  0  0  0  0  0  0  0  0  0  0  0
   -1.0159   -1.0560   -0.7042 H   0  0  0  0  0  0  0  0  0  0  0  0
   -0.6927   -0.1881   -2.2053 H   0  0  0  0  0  0  0  0  0  0  0  0
    1.5437   -0.8276   -1.1343 H   0  0  0  0  0  0  0  0  0  0  0  0
   -2.4195    0.6132   -3.5307 H   0  0  0  0  0  0  0  0  0  0  0  0
   -5.6789   -0.0683    0.1503 H   0  0  0  0  0  0  0  0  0  0  0  0
   -4.8295    0.9433   -3.9301 H   0  0  0  0  0  0  0  0  0  0  0  0
   -0.3117    3.3451    0.4914 H   0  0  0  0  0  0  0  0  0  0  0  0
    1.3029    4.0257    0.8279 H   0  0  0  0  0  0  0  0  0  0  0  0
    0.4918    2.9965    2.0563 H   0  0  0  0  0  0  0  0  0  0  0  0
   -6.4584    0.6037   -2.0905 H   0  0  0  0  0  0  0  0  0  0  0  0
    3.4950   -1.9608   -0.1348 H   0  0  0  0  0  0  0  0  0  0  0  0
    5.1495    2.0412   -0.0826 H   0  0  0  0  0  0  0  0  0  0  0  0
    5.7510   -2.8830   -0.2519 H   0  0  0  0  0  0  0  0  0  0  0  0
    7.4002    1.1024   -0.1851 H   0  0  0  0  0  0  0  0  0  0  0  0
   -2.5048    0.1542    2.8563 H   0  0  0  0  0  0  0  0  0  0  0  0
   -2.2952   -4.4450    0.8092 H   0  0  0  0  0  0  0  0  0  0  0  0
   -4.0048   -4.4268    1.3739 H   0  0  0  0  0  0  0  0  0  0  0  0
   -3.6270   -4.6798   -0.3448 H   0  0  0  0  0  0  0  0  0  0  0  0
   -4.1384    2.0956    3.2930 H   0  0  0  0  0  0  0  0  0  0  0  0
   -2.3801    2.3536    3.5750 H   0  0  0  0  0  0  0  0  0  0  0  0
   -3.3157    3.5133    2.6181 H   0  0  0  0  0  0  0  0  0  0  0  0
  1 27  1  0  0  0  0
  2  9  1  0  0  0  0
  2 10  1  0  0  0  0
  3 25  1  0  0  0  0
  3 28  1  0  0  0  0
  4 26  1  0  0  0  0
  4 29  1  0  0  0  0
  5 25  2  0  0  0  0
  6  7  1  0  0  0  0
  6 10  1  0  0  0  0
  6 19  1  0  0  0  0
  7 12  2  0  0  0  0
  8  9  1  0  0  0  0
  8 11  1  0  0  0  0
  8 14  2  0  0  0  0
  9 30  1  0  0  0  0
  9 31  1  0  0  0  0
 10 13  2  0  0  0  0
 11 16  2  0  0  0  0
 11 17  1  0  0  0  0
 12 13  1  0  0  0  0
 12 15  1  0  0  0  0
 13 32  1  0  0  0  0
 14 18  1  0  0  0  0
 14 33  1  0  0  0  0
 15 21  2  0  0  0  0
 15 22  1  0  0  0  0
 16 20  1  0  0  0  0
 16 34  1  0  0  0  0
 17 25  1  0  0  0  0
 17 26  2  0  0  0  0
 18 20  2  0  0  0  0
 18 35  1  0  0  0  0
 19 36  1  0  0  0  0
 19 37  1  0  0  0  0
 19 38  1  0  0  0  0
 20 39  1  0  0  0  0
 21 23  1  0  0  0  0
 21 40  1  0  0  0  0
 22 24  2  0  0  0  0
 22 41  1  0  0  0  0
 23 27  2  0  0  0  0
 23 42  1  0  0  0  0
 24 27  1  0  0  0  0
 24 43  1  0  0  0  0
 26 44  1  0  0  0  0
 28 45  1  0  0  0  0
 28 46  1  0  0  0  0
 28 47  1  0  0  0  0
 29 48  1  0  0  0  0
 29 49  1  0  0  0  0
 29 50  1  0  0  0  0
M  END
> <PUBCHEM_COMPOUND_CID>
45380417

> <PUBCHEM_CONFORMER_RMSD>
1

> <PUBCHEM_CONFORMER_DIVERSEORDER>
1
98
68
21
71
19
106
45
100
79
73
58
46
26
66
82
75
89
67
41
101
102
94
60
57
33
35
90
30
59
81
27
31
78
48
38
24
28
72
108
43
34
37
39
96
76
49
62
86
99
53
47
17
91
11
63
56
95
14
20
10
23
54
52
80
42
70
6
84
88
18
8
7
2
16
15
93
25
29
74
44
92
83
85
5
107
61
9
50
3
69
105
4
103
32
55
87
104
51
40
12
97
64
65
13
77
22
36
109

> <PUBCHEM_MMFF94_PARTIAL_CHARGES>
39
1 -0.18
10 -0.09
11 0.03
12 0.23
13 -0.15
14 -0.15
15 0.05
16 -0.15
17 -0.01
18 -0.15
19 0.26
2 -0.34
20 -0.15
21 -0.15
22 -0.15
23 -0.15
24 -0.15
25 0.71
26 -0.07
27 0.18
28 0.28
29 0.28
3 -0.43
32 0.15
33 0.15
34 0.15
35 0.15
39 0.15
4 -0.36
40 0.15
41 0.15
42 0.15
43 0.15
44 0.15
5 -0.57
6 0.31
7 -0.71
8 -0.14
9 0.42

> <PUBCHEM_EFFECTIVE_ROTOR_COUNT>
8

> <PUBCHEM_PHARMACOPHORE_FEATURES>
7
1 2 acceptor
1 4 acceptor
1 5 acceptor
1 7 acceptor
5 6 7 10 12 13 rings
6 15 21 22 23 24 27 rings
6 8 11 14 16 18 20 rings

> <PUBCHEM_HEAVY_ATOM_COUNT>
29

> <PUBCHEM_ATOM_DEF_STEREO_COUNT>
0

> <PUBCHEM_ATOM_UDEF_STEREO_COUNT>
0

> <PUBCHEM_BOND_DEF_STEREO_COUNT>
1

> <PUBCHEM_BOND_UDEF_STEREO_COUNT>
0

> <PUBCHEM_ISOTOPIC_ATOM_COUNT>
0

> <PUBCHEM_COMPONENT_COUNT>
1

> <PUBCHEM_CACTVS_TAUTO_COUNT>
1

> <PUBCHEM_CONFORMER_ID>
02B4734100000001

> <PUBCHEM_MMFF94_ENERGY>
79.8942

> <PUBCHEM_FEATURE_SELFOVERLAP>
35.524

> <PUBCHEM_SHAPE_FINGERPRINT>
10165383 225 17894908474503424821
10369192 42 11314312711138999346
10391435 84 18336258016781314802
107951 10 15574993915081457729
11135926 11 18261961730969844802
11315181 36 18201718457431995740
11443803 9 17130717059671195953
11796584 16 18040708169863461794
12166972 35 17059478759976475005
12236239 1 17203602713943334900
12422481 6 16916234248176968444
12596602 18 15769480002763594086
12633046 712 18338241581989821052
12643181 29 18261105262750830922
12760667 363 18272084960116616908
13690498 29 17749672990514238903
14068700 675 16988266656031293301
14844126 61 17274824614967693665
14950920 106 17487916706812604339
15230672 131 17386274382261627706
15361156 5 16877671170844049414
15513586 35 17344640454656485024
16114785 44 18120376445644791093
17349148 13 17131827711410019469
17686467 74 15625071292433120790
17780758 139 18342465845623618346
17844677 252 17313109661555156204
18393751 57 10735870725072164517
19489759 90 14836401445350996614
21033650 10 16805595932896528445
22393880 68 17968366944263628898
22956985 138 13250237287188051317
23522609 53 17915766261680647440
23559900 14 18335694000610679277
249057 3 16950280697964755245
3729539 64 18044079182272787843
4015057 19 18268978942652640709
4073 2 17894348904435940462
44062 13 17967810587148524443
469060 322 15698006266511228315
484985 159 18410863170117139763
5265222 85 17385731317705651342
59755656 520 18408322164812527709
6431902 208 18343586239899384282

> <PUBCHEM_SHAPE_MULTIPOLES>
565.24
16.98
3.04
2.31
34.16
1.63
0.12
7.03
4.04
-2.08
-2.28
-5.62
-0.62
0.9

> <PUBCHEM_SHAPE_SELFOVERLAP>
1206.455

> <PUBCHEM_SHAPE_VOLUME>
316.9

> <PUBCHEM_COORDINATE_TYPE>
2
5
10

$$$$
