57582386
  -OEChem-07232422323D

 37 38  0     0  0  0  0  0  0999 V2000
   -1.5540    1.4598   -2.5496 Cl  0  0  0  0  0  0  0  0  0  0  0  0
   -6.1597    0.5190    0.0556 Cl  0  0  0  0  0  0  0  0  0  0  0  0
   -4.5214   -1.6317    1.8836 Cl  0  0  0  0  0  0  0  0  0  0  0  0
   -0.4878   -0.5904   -0.6360 O   0  0  0  0  0  0  0  0  0  0  0  0
    0.7775    0.8314    1.3365 O   0  0  0  0  0  0  0  0  0  0  0  0
    1.8564    2.9553    0.5616 O   0  0  0  0  0  0  0  0  0  0  0  0
    3.4899    1.9396   -0.6589 O   0  0  0  0  0  0  0  0  0  0  0  0
    1.9066    0.6651    0.4924 N   0  0  0  0  0  0  0  0  0  0  0  0
   -2.4697   -0.9880    0.4758 N   0  0  0  0  0  0  0  0  0  0  0  0
    1.5213   -1.7033   -0.0182 C   0  0  0  0  0  0  0  0  0  0  0  0
    2.3900   -0.6191    0.1047 C   0  0  0  0  0  0  0  0  0  0  0  0
    0.0588   -1.5568    0.2514 C   0  0  0  0  0  0  0  0  0  0  0  0
    2.0136   -2.9518   -0.3984 C   0  0  0  0  0  0  0  0  0  0  0  0
    3.7511   -0.7833   -0.1525 C   0  0  0  0  0  0  0  0  0  0  0  0
    3.3746   -3.1160   -0.6558 C   0  0  0  0  0  0  0  0  0  0  0  0
    4.2434   -2.0318   -0.5329 C   0  0  0  0  0  0  0  0  0  0  0  0
   -1.8220   -0.3088   -0.4973 C   0  0  0  0  0  0  0  0  0  0  0  0
    2.5069    1.8478    0.0710 C   0  0  0  0  0  0  0  0  0  0  0  0
   -2.4259    0.6226   -1.3265 C   0  0  0  0  0  0  0  0  0  0  0  0
   -3.7815    0.8734   -1.1452 C   0  0  0  0  0  0  0  0  0  0  0  0
    1.2114    0.8627    2.6967 C   0  0  0  0  0  0  0  0  0  0  0  0
   -4.4820    0.1946   -0.1544 C   0  0  0  0  0  0  0  0  0  0  0  0
   -3.7862   -0.7179    0.6222 C   0  0  0  0  0  0  0  0  0  0  0  0
    2.3887    4.2276    0.1741 C   0  0  0  0  0  0  0  0  0  0  0  0
   -0.4414   -2.5164    0.0598 H   0  0  0  0  0  0  0  0  0  0  0  0
   -0.1163   -1.3225    1.3078 H   0  0  0  0  0  0  0  0  0  0  0  0
    1.3527   -3.8087   -0.4985 H   0  0  0  0  0  0  0  0  0  0  0  0
    4.4809    0.0060   -0.0096 H   0  0  0  0  0  0  0  0  0  0  0  0
    3.7586   -4.0889   -0.9484 H   0  0  0  0  0  0  0  0  0  0  0  0
    5.3053   -2.1641   -0.7188 H   0  0  0  0  0  0  0  0  0  0  0  0
   -4.2907    1.5983   -1.7767 H   0  0  0  0  0  0  0  0  0  0  0  0
    1.6753   -0.0896    2.9723 H   0  0  0  0  0  0  0  0  0  0  0  0
    1.9099    1.6858    2.8739 H   0  0  0  0  0  0  0  0  0  0  0  0
    0.3314    1.0134    3.3279 H   0  0  0  0  0  0  0  0  0  0  0  0
    1.7759    5.0062    0.6360 H   0  0  0  0  0  0  0  0  0  0  0  0
    2.3415    4.3418   -0.9129 H   0  0  0  0  0  0  0  0  0  0  0  0
    3.4174    4.3318    0.5317 H   0  0  0  0  0  0  0  0  0  0  0  0
  1 19  1  0  0  0  0
  2 22  1  0  0  0  0
  3 23  1  0  0  0  0
  4 12  1  0  0  0  0
  4 17  1  0  0  0  0
  5  8  1  0  0  0  0
  5 21  1  0  0  0  0
  6 18  1  0  0  0  0
  6 24  1  0  0  0  0
  7 18  2  0  0  0  0
  8 11  1  0  0  0  0
  8 18  1  0  0  0  0
  9 17  2  0  0  0  0
  9 23  1  0  0  0  0
 10 11  1  0  0  0  0
 10 12  1  0  0  0  0
 10 13  2  0  0  0  0
 11 14  2  0  0  0  0
 12 25  1  0  0  0  0
 12 26  1  0  0  0  0
 13 15  1  0  0  0  0
 13 27  1  0  0  0  0
 14 16  1  0  0  0  0
 14 28  1  0  0  0  0
 15 16  2  0  0  0  0
 15 29  1  0  0  0  0
 16 30  1  0  0  0  0
 17 19  1  0  0  0  0
 19 20  2  0  0  0  0
 20 22  1  0  0  0  0
 20 31  1  0  0  0  0
 21 32  1  0  0  0  0
 21 33  1  0  0  0  0
 21 34  1  0  0  0  0
 22 23  2  0  0  0  0
 24 35  1  0  0  0  0
 24 36  1  0  0  0  0
 24 37  1  0  0  0  0
M  END
> <PUBCHEM_COMPOUND_CID>
57582386

> <PUBCHEM_CONFORMER_RMSD>
1

> <PUBCHEM_CONFORMER_DIVERSEORDER>
1
102
71
109
151
112
2
154
77
21
70
97
17
78
13
158
110
5
47
41
12
87
104
33
98
138
26
60
45
130
95
135
93
157
142
63
75
128
129
27
80
64
43
35
103
52
92
18
73
24
66
74
125
105
145
164
121
94
62
55
69
122
132
116
19
159
140
11
118
90
20
58
120
99
8
89
76
84
79
65
114
37
119
44
163
141
85
146
34
4
147
6
56
161
36
28
29
15
42
139
86
46
131
39
25
134
9
107
32
108
68
49
22
48
96
144
23
133
3
72
127
148
10
53
59
166
57
14
54
30
16
160
40
111
31
38
137
82
117
156
106
50
150
165
115
83
113
61
91
51
152
123
101
155
67
162
143
136
153
81
100
7
88
124
149
126

> <PUBCHEM_MMFF94_PARTIAL_CHARGES>
29
1 -0.18
10 -0.14
11 0.12
12 0.42
13 -0.15
14 -0.15
15 -0.15
16 -0.15
17 0.39
18 0.78
19 0.18
2 -0.18
20 -0.15
21 0.28
22 0.18
23 0.49
24 0.28
27 0.15
28 0.15
29 0.15
3 -0.18
30 0.15
31 0.15
4 -0.36
5 -0.32
6 -0.43
7 -0.57
8 -0.14
9 -0.62

> <PUBCHEM_EFFECTIVE_ROTOR_COUNT>
7

> <PUBCHEM_PHARMACOPHORE_FEATURES>
3
1 7 acceptor
6 10 11 13 14 15 16 rings
6 9 17 19 20 22 23 rings

> <PUBCHEM_HEAVY_ATOM_COUNT>
24

> <PUBCHEM_ATOM_DEF_STEREO_COUNT>
0

> <PUBCHEM_ATOM_UDEF_STEREO_COUNT>
0

> <PUBCHEM_BOND_DEF_STEREO_COUNT>
0

> <PUBCHEM_BOND_UDEF_STEREO_COUNT>
0

> <PUBCHEM_ISOTOPIC_ATOM_COUNT>
0

> <PUBCHEM_COMPONENT_COUNT>
1

> <PUBCHEM_CACTVS_TAUTO_COUNT>
1

> <PUBCHEM_CONFORMER_ID>
036EA33200000001

> <PUBCHEM_MMFF94_ENERGY>
80.1533

> <PUBCHEM_FEATURE_SELFOVERLAP>
15.223

> <PUBCHEM_SHAPE_FINGERPRINT>
10165383 225 18051426359055096000
10366900 7 18041559140176351983
10673678 19 18043271183197196694
11045977 3 18260552199896131383
11370993 144 18337402560887702563
11595378 159 16009020658199449269
12236239 1 16630237027069755391
12623949 98 18196679464705136943
13134695 92 17631436913353183714
13533116 47 18412545414665569405
14251757 17 18189894214976707366
14866123 147 16464733837609295890
15081414 286 18343026580011984052
151778 21 18340208616839479629
15238133 3 17417820483158148289
15806764 133 18262227803755715989
1813 80 17773608109142415886
18785283 64 18336830917572411664
19930381 70 18267020746660923873
21033648 29 18337097978987075625
21792961 116 18190187776509075054
22122407 14 17988376901297518945
221357 26 18337388215227441999
23175994 123 18268997492252200295
23419403 2 17753932490091225770
23526113 38 18190454961406586843
23557571 272 17604155938435194355
23559900 14 18409163286665071219
238 59 17978468153356148876
3524813 1 18187922833361494007
46194498 28 18041002829967811068
49207404 50 18189336938743487009
5281201 14 18409728422334573919
6049 1 18187361000220758951
621550 5 18116730537826392151
6287921 2 18117284867822778341
6438718 38 17053850093507675044
6442390 28 17907586078913947418
6823239 73 17894633643097179421
7495541 125 18334300850748559054

> <PUBCHEM_SHAPE_MULTIPOLES>
466.08
9.97
3.64
1.72
11.11
2.42
-0.36
-2.28
-0.06
-5.4
-0.02
0.94
0.54
2.31

> <PUBCHEM_SHAPE_SELFOVERLAP>
959.106

> <PUBCHEM_SHAPE_VOLUME>
269.9

> <PUBCHEM_COORDINATE_TYPE>
2
5
10

$$$$
