213032
  -OEChem-07232422543D

 46 49  0     1  0  0  0  0  0999 V2000
    1.9597   -2.5545    0.6437 O   0  0  0  0  0  0  0  0  0  0  0  0
    1.5355   -0.4321   -2.1213 O   0  0  0  0  0  0  0  0  0  0  0  0
    4.0297   -1.9727    1.4229 O   0  0  0  0  0  0  0  0  0  0  0  0
   -3.9114   -0.3539    1.3936 O   0  0  0  0  0  0  0  0  0  0  0  0
    3.0647   -1.0055   -0.4548 N   0  0  0  0  0  0  0  0  0  0  0  0
    4.0456   -0.1197   -0.7593 N   0  0  0  0  0  0  0  0  0  0  0  0
    1.1120   -2.1978   -0.4867 C   0  0  1  0  0  0  0  0  0  0  0  0
   -0.2336   -1.7040    0.0171 C   0  0  0  0  0  0  0  0  0  0  0  0
    1.9009   -1.0874   -1.1581 C   0  0  0  0  0  0  0  0  0  0  0  0
    1.0888   -3.4192   -1.4106 C   0  0  0  0  0  0  0  0  0  0  0  0
    3.1303   -1.8419    0.6059 C   0  0  0  0  0  0  0  0  0  0  0  0
   -1.3546   -1.7619   -0.8121 C   0  0  0  0  0  0  0  0  0  0  0  0
   -0.3509   -1.1916    1.3102 C   0  0  0  0  0  0  0  0  0  0  0  0
   -2.5899   -1.3083   -0.3497 C   0  0  0  0  0  0  0  0  0  0  0  0
   -1.5862   -0.7382    1.7727 C   0  0  0  0  0  0  0  0  0  0  0  0
   -2.7059   -0.7965    0.9428 C   0  0  0  0  0  0  0  0  0  0  0  0
    3.9648    1.1930   -0.2802 C   0  0  0  0  0  0  0  0  0  0  0  0
    4.8900    2.1577   -0.6976 C   0  0  0  0  0  0  0  0  0  0  0  0
    2.9579    1.5564    0.6226 C   0  0  0  0  0  0  0  0  0  0  0  0
   -4.6615    0.4448    0.5467 C   0  0  0  0  0  0  0  0  0  0  0  0
    4.8097    3.4656   -0.2194 C   0  0  0  0  0  0  0  0  0  0  0  0
    2.8776    2.8643    1.1006 C   0  0  0  0  0  0  0  0  0  0  0  0
    3.8036    3.8189    0.6795 C   0  0  0  0  0  0  0  0  0  0  0  0
   -4.0386    1.4739   -0.1360 C   0  0  0  0  0  0  0  0  0  0  0  0
   -6.0142    0.1929    0.4061 C   0  0  0  0  0  0  0  0  0  0  0  0
   -4.7943    2.2789   -0.9884 C   0  0  0  0  0  0  0  0  0  0  0  0
   -6.7698    0.9979   -0.4465 C   0  0  0  0  0  0  0  0  0  0  0  0
   -6.1599    2.0408   -1.1436 C   0  0  0  0  0  0  0  0  0  0  0  0
    0.5554   -4.2525   -0.9391 H   0  0  0  0  0  0  0  0  0  0  0  0
    2.1054   -3.7753   -1.6181 H   0  0  0  0  0  0  0  0  0  0  0  0
    0.6164   -3.2057   -2.3747 H   0  0  0  0  0  0  0  0  0  0  0  0
   -1.2933   -2.1477   -1.8250 H   0  0  0  0  0  0  0  0  0  0  0  0
    0.5027   -1.1214    1.9780 H   0  0  0  0  0  0  0  0  0  0  0  0
    4.7416   -0.3874   -1.4424 H   0  0  0  0  0  0  0  0  0  0  0  0
   -3.4490   -1.3852   -1.0109 H   0  0  0  0  0  0  0  0  0  0  0  0
   -1.6700   -0.3376    2.7793 H   0  0  0  0  0  0  0  0  0  0  0  0
    5.6796    1.8962   -1.3978 H   0  0  0  0  0  0  0  0  0  0  0  0
    2.2170    0.8509    0.9861 H   0  0  0  0  0  0  0  0  0  0  0  0
    5.5306    4.2090   -0.5471 H   0  0  0  0  0  0  0  0  0  0  0  0
    2.0952    3.1397    1.8018 H   0  0  0  0  0  0  0  0  0  0  0  0
    3.7411    4.8372    1.0519 H   0  0  0  0  0  0  0  0  0  0  0  0
   -2.9822    1.6948   -0.0141 H   0  0  0  0  0  0  0  0  0  0  0  0
   -6.4901   -0.6186    0.9480 H   0  0  0  0  0  0  0  0  0  0  0  0
   -4.3208    3.0944   -1.5273 H   0  0  0  0  0  0  0  0  0  0  0  0
   -7.8332    0.8127   -0.5673 H   0  0  0  0  0  0  0  0  0  0  0  0
   -6.7486    2.6684   -1.8063 H   0  0  0  0  0  0  0  0  0  0  0  0
  1  7  1  0  0  0  0
  1 11  1  0  0  0  0
  2  9  2  0  0  0  0
  3 11  2  0  0  0  0
  4 16  1  0  0  0  0
  4 20  1  0  0  0  0
  5  6  1  0  0  0  0
  5  9  1  0  0  0  0
  5 11  1  0  0  0  0
  6 17  1  0  0  0  0
  6 34  1  0  0  0  0
  7  8  1  0  0  0  0
  7  9  1  0  0  0  0
  7 10  1  0  0  0  0
  8 12  2  0  0  0  0
  8 13  1  0  0  0  0
 10 29  1  0  0  0  0
 10 30  1  0  0  0  0
 10 31  1  0  0  0  0
 12 14  1  0  0  0  0
 12 32  1  0  0  0  0
 13 15  2  0  0  0  0
 13 33  1  0  0  0  0
 14 16  2  0  0  0  0
 14 35  1  0  0  0  0
 15 16  1  0  0  0  0
 15 36  1  0  0  0  0
 17 18  2  0  0  0  0
 17 19  1  0  0  0  0
 18 21  1  0  0  0  0
 18 37  1  0  0  0  0
 19 22  2  0  0  0  0
 19 38  1  0  0  0  0
 20 24  2  0  0  0  0
 20 25  1  0  0  0  0
 21 23  2  0  0  0  0
 21 39  1  0  0  0  0
 22 23  1  0  0  0  0
 22 40  1  0  0  0  0
 23 41  1  0  0  0  0
 24 26  1  0  0  0  0
 24 42  1  0  0  0  0
 25 27  2  0  0  0  0
 25 43  1  0  0  0  0
 26 28  2  0  0  0  0
 26 44  1  0  0  0  0
 27 28  1  0  0  0  0
 27 45  1  0  0  0  0
 28 46  1  0  0  0  0
M  END
> <PUBCHEM_COMPOUND_CID>
213032

> <PUBCHEM_CONFORMER_RMSD>
0.8

> <PUBCHEM_CONFORMER_DIVERSEORDER>
9
34
6
44
72
17
66
70
95
82
85
2
101
104
83
43
96
89
27
21
51
88
12
78
80
64
99
23
29
35
31
77
74
84
65
92
1
50
100
38
15
25
91
103
97
62
42
20
105
61
69
13
90
75
10
45
46
3
19
87
22
26
86
32
48
98
37
40
63
28
59
36
58
8
41
16
53
76
5
93
60
102
18
14
4
94
39
33
68
47
81
73
56
67
24
71
52
57
7
49
30
55
11
79
54

> <PUBCHEM_MMFF94_PARTIAL_CHARGES>
42
1 -0.43
11 0.78
12 -0.15
13 -0.15
14 -0.15
15 -0.15
16 0.08
17 0.1
18 -0.15
19 -0.15
2 -0.57
20 0.08
21 -0.15
22 -0.15
23 -0.15
24 -0.15
25 -0.15
26 -0.15
27 -0.15
28 -0.15
3 -0.57
32 0.15
33 0.15
34 0.4
35 0.15
36 0.15
37 0.15
38 0.15
39 0.15
4 -0.17
40 0.15
41 0.15
42 0.15
43 0.15
44 0.15
45 0.15
46 0.15
5 -0.1
6 -0.52
7 0.48
8 -0.14
9 0.57

> <PUBCHEM_EFFECTIVE_ROTOR_COUNT>
5.6

> <PUBCHEM_PHARMACOPHORE_FEATURES>
8
1 2 acceptor
1 3 acceptor
1 4 acceptor
1 6 donor
5 1 5 7 9 11 rings
6 17 18 19 21 22 23 rings
6 20 24 25 26 27 28 rings
6 8 12 13 14 15 16 rings

> <PUBCHEM_HEAVY_ATOM_COUNT>
28

> <PUBCHEM_ATOM_DEF_STEREO_COUNT>
0

> <PUBCHEM_ATOM_UDEF_STEREO_COUNT>
1

> <PUBCHEM_BOND_DEF_STEREO_COUNT>
0

> <PUBCHEM_BOND_UDEF_STEREO_COUNT>
0

> <PUBCHEM_ISOTOPIC_ATOM_COUNT>
0

> <PUBCHEM_COMPONENT_COUNT>
1

> <PUBCHEM_CACTVS_TAUTO_COUNT>
1

> <PUBCHEM_CONFORMER_ID>
0003402800000009

> <PUBCHEM_MMFF94_ENERGY>
96.9905

> <PUBCHEM_FEATURE_SELFOVERLAP>
40.598

> <PUBCHEM_SHAPE_FINGERPRINT>
12166972 35 17916019053773387907
12596602 18 14924525124885147381
12769317 202 18272090504397312456
13402501 40 18407760339397454205
13583140 156 18335150769284865107
13878862 14 18262498334738817237
13911987 19 17917438648503081723
13944108 23 18267311932511575516
14251764 38 18338517409480416529
14468879 13 18262805184608984073
14739800 52 17894902985139523297
14848178 96 18342741853070278088
15082195 135 17988917890539855743
15475509 84 17899406494577614568
15848702 68 18411981347783098928
16120349 189 18192991754149887604
17868525 174 18116423753024085586
18335252 114 18341892948758015582
19304152 47 17684375331803758368
20715895 44 18341889658591559593
21033648 29 18262519329129952532
21315764 268 18187640246426220429
21388113 180 18410293631515314837
21475661 188 18261393381403404672
21968339 14 18272930484146906756
22122407 14 18338807702235697097
22393880 68 18059295499429356316
23559900 14 18129669586362610207
23569914 2 17391305820469262717
25222932 49 12319167340220527316
25223398 141 16414618501821857318
2838139 119 18335414622258173045
328310 1195 18265609893022328325
3298306 158 18340485689675581553
3388396 114 16106703860861143148
345986 75 13190336842667720775
3472631 163 18271811249918720031
34797466 226 18201727219872077183
376196 1 18408887364453788234
4371632 12 16699753825671271761
474 4 18272942647526327522
5223283 242 17264137156293390485
5265222 85 17903363941252727212
5895379 119 17914905223025035488

> <PUBCHEM_SHAPE_MULTIPOLES>
542.79
14.09
4.23
1.47
16.56
1.64
-0.02
13.56
1.5
-5.47
0.39
0.06
-0.38
1.28

> <PUBCHEM_SHAPE_SELFOVERLAP>
1201.254

> <PUBCHEM_SHAPE_VOLUME>
290.5

> <PUBCHEM_COORDINATE_TYPE>
2
5
10

$$$$
