10403199
  -OEChem-07232423003D

 39 41  0     1  0  0  0  0  0999 V2000
    1.1428    2.8263   -1.3301 S   0  0  0  0  0  0  0  0  0  0  0  0
   -0.1924   -0.4146    2.2293 O   0  0  0  0  0  0  0  0  0  0  0  0
    0.6775    1.0772    0.6574 N   0  0  0  0  0  0  0  0  0  0  0  0
   -1.1499    1.8402   -0.3794 N   0  0  0  0  0  0  0  0  0  0  0  0
    1.9979    0.9148    0.9217 N   0  0  0  0  0  0  0  0  0  0  0  0
   -1.6038    0.8925    0.7000 C   0  0  2  0  0  0  0  0  0  0  0  0
   -0.2959    0.4023    1.3286 C   0  0  0  0  0  0  0  0  0  0  0  0
   -2.3978   -0.2735    0.1216 C   0  0  0  0  0  0  0  0  0  0  0  0
   -2.3395    1.7482    1.7432 C   0  0  0  0  0  0  0  0  0  0  0  0
    0.1435    1.8642   -0.2955 C   0  0  0  0  0  0  0  0  0  0  0  0
   -2.8151   -1.3115    0.9534 C   0  0  0  0  0  0  0  0  0  0  0  0
   -2.7055   -0.2995   -1.2378 C   0  0  0  0  0  0  0  0  0  0  0  0
    2.6936   -0.1507    0.3387 C   0  0  0  0  0  0  0  0  0  0  0  0
   -3.5418   -2.3781    0.4245 C   0  0  0  0  0  0  0  0  0  0  0  0
   -3.4323   -1.3662   -1.7666 C   0  0  0  0  0  0  0  0  0  0  0  0
   -3.8504   -2.4055   -0.9354 C   0  0  0  0  0  0  0  0  0  0  0  0
    4.0177   -0.4185    0.7075 C   0  0  0  0  0  0  0  0  0  0  0  0
    2.0736   -0.9607   -0.6204 C   0  0  0  0  0  0  0  0  0  0  0  0
    0.0138    4.1969   -1.6562 C   0  0  0  0  0  0  0  0  0  0  0  0
    4.7111   -1.4798    0.1260 C   0  0  0  0  0  0  0  0  0  0  0  0
    2.7670   -2.0222   -1.2019 C   0  0  0  0  0  0  0  0  0  0  0  0
    4.0858   -2.2817   -0.8287 C   0  0  0  0  0  0  0  0  0  0  0  0
   -1.7108    2.5694    2.1073 H   0  0  0  0  0  0  0  0  0  0  0  0
   -2.6381    1.1538    2.6138 H   0  0  0  0  0  0  0  0  0  0  0  0
   -3.2460    2.1893    1.3134 H   0  0  0  0  0  0  0  0  0  0  0  0
   -2.6012   -1.3050    2.0181 H   0  0  0  0  0  0  0  0  0  0  0  0
   -2.4041    0.4898   -1.9192 H   0  0  0  0  0  0  0  0  0  0  0  0
    2.4187    1.4855    1.6428 H   0  0  0  0  0  0  0  0  0  0  0  0
   -3.8707   -3.1856    1.0721 H   0  0  0  0  0  0  0  0  0  0  0  0
   -3.6740   -1.3875   -2.8253 H   0  0  0  0  0  0  0  0  0  0  0  0
   -4.4172   -3.2355   -1.3471 H   0  0  0  0  0  0  0  0  0  0  0  0
    4.5175    0.1987    1.4503 H   0  0  0  0  0  0  0  0  0  0  0  0
    1.0510   -0.7990   -0.9492 H   0  0  0  0  0  0  0  0  0  0  0  0
    0.5340    4.9583   -2.2436 H   0  0  0  0  0  0  0  0  0  0  0  0
   -0.3208    4.6516   -0.7196 H   0  0  0  0  0  0  0  0  0  0  0  0
   -0.8542    3.8564   -2.2273 H   0  0  0  0  0  0  0  0  0  0  0  0
    5.7380   -1.6819    0.4164 H   0  0  0  0  0  0  0  0  0  0  0  0
    2.2810   -2.6464   -1.9462 H   0  0  0  0  0  0  0  0  0  0  0  0
    4.6258   -3.1080   -1.2817 H   0  0  0  0  0  0  0  0  0  0  0  0
  1 10  1  0  0  0  0
  1 19  1  0  0  0  0
  2  7  2  0  0  0  0
  3  5  1  0  0  0  0
  3  7  1  0  0  0  0
  3 10  1  0  0  0  0
  4  6  1  0  0  0  0
  4 10  2  0  0  0  0
  5 13  1  0  0  0  0
  5 28  1  0  0  0  0
  6  7  1  0  0  0  0
  6  8  1  0  0  0  0
  6  9  1  0  0  0  0
  8 11  2  0  0  0  0
  8 12  1  0  0  0  0
  9 23  1  0  0  0  0
  9 24  1  0  0  0  0
  9 25  1  0  0  0  0
 11 14  1  0  0  0  0
 11 26  1  0  0  0  0
 12 15  2  0  0  0  0
 12 27  1  0  0  0  0
 13 17  2  0  0  0  0
 13 18  1  0  0  0  0
 14 16  2  0  0  0  0
 14 29  1  0  0  0  0
 15 16  1  0  0  0  0
 15 30  1  0  0  0  0
 16 31  1  0  0  0  0
 17 20  1  0  0  0  0
 17 32  1  0  0  0  0
 18 21  2  0  0  0  0
 18 33  1  0  0  0  0
 19 34  1  0  0  0  0
 19 35  1  0  0  0  0
 19 36  1  0  0  0  0
 20 22  2  0  0  0  0
 20 37  1  0  0  0  0
 21 22  1  0  0  0  0
 21 38  1  0  0  0  0
 22 39  1  0  0  0  0
M  END
> <PUBCHEM_COMPOUND_CID>
10403199

> <PUBCHEM_CONFORMER_RMSD>
0.8

> <PUBCHEM_CONFORMER_DIVERSEORDER>
2
5
13
9
11
7
6
12
1
4
10
3
8

> <PUBCHEM_MMFF94_PARTIAL_CHARGES>
32
1 -0.37
10 0.65
11 -0.15
12 -0.15
13 0.1
14 -0.15
15 -0.15
16 -0.15
17 -0.15
18 -0.15
19 0.23
2 -0.57
20 -0.15
21 -0.15
22 -0.15
26 0.15
27 0.15
28 0.4
29 0.15
3 -0.1
30 0.15
31 0.15
32 0.15
33 0.15
37 0.15
38 0.15
39 0.15
4 -0.7
5 -0.52
6 0.45
7 0.57
8 -0.14

> <PUBCHEM_EFFECTIVE_ROTOR_COUNT>
4.4

> <PUBCHEM_PHARMACOPHORE_FEATURES>
6
1 19 hydrophobe
1 2 acceptor
1 5 donor
5 3 4 6 7 10 rings
6 13 17 18 20 21 22 rings
6 8 11 12 14 15 16 rings

> <PUBCHEM_HEAVY_ATOM_COUNT>
22

> <PUBCHEM_ATOM_DEF_STEREO_COUNT>
1

> <PUBCHEM_ATOM_UDEF_STEREO_COUNT>
0

> <PUBCHEM_BOND_DEF_STEREO_COUNT>
0

> <PUBCHEM_BOND_UDEF_STEREO_COUNT>
0

> <PUBCHEM_ISOTOPIC_ATOM_COUNT>
0

> <PUBCHEM_COMPONENT_COUNT>
1

> <PUBCHEM_CACTVS_TAUTO_COUNT>
1

> <PUBCHEM_CONFORMER_ID>
009EBD7F00000002

> <PUBCHEM_MMFF94_ENERGY>
73.3441

> <PUBCHEM_FEATURE_SELFOVERLAP>
30.447

> <PUBCHEM_SHAPE_FINGERPRINT>
11477941 20 17900576439811967886
11578080 2 18059558200856954480
12160290 23 17462836580627649220
12363563 72 18334296478592956682
12422481 6 17628955316179558243
12553582 1 18114184090503044842
12633257 1 15267062609573911443
13149001 5 17386858376863014123
133893 2 17897184613016158948
13544653 18 18059851796262405106
13583140 156 16629947876828024160
13681431 1 18188778365262085404
13911987 19 17252880849510939941
14787075 74 16628542834317167960
14863182 85 17766551730887423528
15099037 8 18342181097987342489
15375462 189 17059774541130552754
15475509 8 18337097966197210773
15502722 9 17900258916351989789
15849732 13 18265343811435630161
17357779 13 18270947003551110126
1813 80 18408046225283686119
19141452 34 18199192793307830745
20388580 30 18266735964617105999
20600515 1 17900786578906907201
20645477 70 17973993248801193935
20671657 53 18188480371766735827
20693207 138 16951980663617404643
21304303 282 17103644823551462724
21452121 199 18339917246321266865
23114952 82 17679582513220408101
23402539 116 18041282059103698370
23557571 272 18264754502982920552
23559900 14 17988064664957919056
25 1 7781521434122048274
26353 1 17967531268182093764
3493558 16 8926014808002403291
4280585 95 18261940912914733410
46194498 28 17899395761459935631
463206 1 17771330157336688599
5262128 65 18188769569163378837
6669772 16 17544209628376777452
6913067 236 18339061775574045632

> <PUBCHEM_SHAPE_MULTIPOLES>
435.79
7.62
3.75
1.76
3.72
3.2
0.13
-8.07
-1.01
-0.15
-2.19
-0.81
0.42
-0.45

> <PUBCHEM_SHAPE_SELFOVERLAP>
931.536

> <PUBCHEM_SHAPE_VOLUME>
245

> <PUBCHEM_COORDINATE_TYPE>
2
5
10

$$$$
