59774441
  -OEChem-07232422283D

 43 44  0     0  0  0  0  0  0999 V2000
    1.7299    3.1424    0.6455 Cl  0  0  0  0  0  0  0  0  0  0  0  0
    5.6676   -1.6706   -0.6204 F   0  0  0  0  0  0  0  0  0  0  0  0
    6.1063    0.3763   -1.2081 F   0  0  0  0  0  0  0  0  0  0  0  0
    6.1110   -0.1711    0.8905 F   0  0  0  0  0  0  0  0  0  0  0  0
   -0.0805    0.8149    0.0423 O   0  0  0  0  0  0  0  0  0  0  0  0
   -1.9886    0.0199    2.3486 O   0  0  0  0  0  0  0  0  0  0  0  0
   -3.2609   -2.3351   -1.5524 O   0  0  0  0  0  0  0  0  0  0  0  0
   -1.6156   -2.2509    2.2712 O   0  0  0  0  0  0  0  0  0  0  0  0
   -2.2632    0.9893   -0.8863 C   0  0  0  0  0  0  0  0  0  0  0  0
   -3.1110    0.1648   -0.1467 C   0  0  0  0  0  0  0  0  0  0  0  0
   -0.8387    0.6148   -1.1427 C   0  0  0  0  0  0  0  0  0  0  0  0
   -2.7391    2.1934   -1.4052 C   0  0  0  0  0  0  0  0  0  0  0  0
   -4.4350    0.5445    0.0740 C   0  0  0  0  0  0  0  0  0  0  0  0
   -2.6387   -1.1116    0.4152 C   0  0  0  0  0  0  0  0  0  0  0  0
    1.2623    0.5495   -0.0307 C   0  0  0  0  0  0  0  0  0  0  0  0
   -4.0631    2.5732   -1.1844 C   0  0  0  0  0  0  0  0  0  0  0  0
   -4.9110    1.7487   -0.4448 C   0  0  0  0  0  0  0  0  0  0  0  0
    3.9822   -0.0488   -0.1933 C   0  0  0  0  0  0  0  0  0  0  0  0
    2.2109    1.5398    0.2254 C   0  0  0  0  0  0  0  0  0  0  0  0
    1.6737   -0.7399   -0.3681 C   0  0  0  0  0  0  0  0  0  0  0  0
    3.5707    1.2405    0.1440 C   0  0  0  0  0  0  0  0  0  0  0  0
    3.0336   -1.0391   -0.4494 C   0  0  0  0  0  0  0  0  0  0  0  0
   -2.0199   -1.2117    1.7692 C   0  0  0  0  0  0  0  0  0  0  0  0
   -2.7354   -2.2500   -0.2896 C   0  0  0  0  0  0  0  0  0  0  0  0
    5.4361   -0.3691   -0.2803 C   0  0  0  0  0  0  0  0  0  0  0  0
   -1.4264    0.0725    3.6640 C   0  0  0  0  0  0  0  0  0  0  0  0
   -2.6573   -3.3862   -2.2876 C   0  0  0  0  0  0  0  0  0  0  0  0
   -0.7828   -0.4215   -1.4950 H   0  0  0  0  0  0  0  0  0  0  0  0
   -0.4180    1.2364   -1.9444 H   0  0  0  0  0  0  0  0  0  0  0  0
   -2.0917    2.8492   -1.9813 H   0  0  0  0  0  0  0  0  0  0  0  0
   -5.1093   -0.0856    0.6492 H   0  0  0  0  0  0  0  0  0  0  0  0
   -4.4337    3.5110   -1.5877 H   0  0  0  0  0  0  0  0  0  0  0  0
   -5.9416    2.0446   -0.2726 H   0  0  0  0  0  0  0  0  0  0  0  0
    0.9516   -1.5305   -0.5516 H   0  0  0  0  0  0  0  0  0  0  0  0
    4.3152    2.0082    0.3427 H   0  0  0  0  0  0  0  0  0  0  0  0
    3.3333   -2.0505   -0.7093 H   0  0  0  0  0  0  0  0  0  0  0  0
   -2.4064   -3.2089    0.0922 H   0  0  0  0  0  0  0  0  0  0  0  0
   -1.4687    1.1086    4.0099 H   0  0  0  0  0  0  0  0  0  0  0  0
   -0.3802   -0.2473    3.6402 H   0  0  0  0  0  0  0  0  0  0  0  0
   -2.0072   -0.5514    4.3498 H   0  0  0  0  0  0  0  0  0  0  0  0
   -1.5702   -3.2577   -2.3418 H   0  0  0  0  0  0  0  0  0  0  0  0
   -2.9047   -4.3617   -1.8544 H   0  0  0  0  0  0  0  0  0  0  0  0
   -3.0530   -3.3594   -3.3072 H   0  0  0  0  0  0  0  0  0  0  0  0
  1 19  1  0  0  0  0
  2 25  1  0  0  0  0
  3 25  1  0  0  0  0
  4 25  1  0  0  0  0
  5 11  1  0  0  0  0
  5 15  1  0  0  0  0
  6 23  1  0  0  0  0
  6 26  1  0  0  0  0
  7 24  1  0  0  0  0
  7 27  1  0  0  0  0
  8 23  2  0  0  0  0
  9 10  1  0  0  0  0
  9 11  1  0  0  0  0
  9 12  2  0  0  0  0
 10 13  2  0  0  0  0
 10 14  1  0  0  0  0
 11 28  1  0  0  0  0
 11 29  1  0  0  0  0
 12 16  1  0  0  0  0
 12 30  1  0  0  0  0
 13 17  1  0  0  0  0
 13 31  1  0  0  0  0
 14 23  1  0  0  0  0
 14 24  2  0  0  0  0
 15 19  2  0  0  0  0
 15 20  1  0  0  0  0
 16 17  2  0  0  0  0
 16 32  1  0  0  0  0
 17 33  1  0  0  0  0
 18 21  2  0  0  0  0
 18 22  1  0  0  0  0
 18 25  1  0  0  0  0
 19 21  1  0  0  0  0
 20 22  2  0  0  0  0
 20 34  1  0  0  0  0
 21 35  1  0  0  0  0
 22 36  1  0  0  0  0
 24 37  1  0  0  0  0
 26 38  1  0  0  0  0
 26 39  1  0  0  0  0
 26 40  1  0  0  0  0
 27 41  1  0  0  0  0
 27 42  1  0  0  0  0
 27 43  1  0  0  0  0
M  END
> <PUBCHEM_COMPOUND_CID>
59774441

> <PUBCHEM_CONFORMER_RMSD>
1

> <PUBCHEM_CONFORMER_DIVERSEORDER>
2
71
116
123
108
102
57
58
70
36
117
77
81
143
65
144
29
151
5
115
48
53
9
145
113
163
127
174
69
14
61
164
39
42
111
162
100
133
20
38
43
98
132
146
135
171
54
72
168
97
92
85
7
31
167
125
16
131
159
51
64
173
154
91
166
118
59
121
50
66
158
79
44
55
35
104
119
27
47
34
80
148
155
52
93
170
46
62
28
24
165
140
103
124
156
142
22
138
84
90
1
75
128
33
160
112
120
67
105
21
60
110
32
139
78
134
89
152
136
94
172
109
56
88
150
149
73
122
86
26
137
96
161
8
147
37
130
83
106
49
114
23
18
157
15
13
99
40
82
19
107
25
74
76
153
126
10
6
63
95
169
141
30
45
4
12
41
87
129
101
11
68
17
3

> <PUBCHEM_MMFF94_PARTIAL_CHARGES>
35
1 -0.18
10 0.03
11 0.42
12 -0.15
13 -0.15
14 -0.01
15 0.08
16 -0.15
17 -0.15
18 -0.14
19 0.18
2 -0.34
20 -0.15
21 -0.15
22 -0.15
23 0.71
24 -0.07
25 1.16
26 0.28
27 0.28
3 -0.34
30 0.15
31 0.15
32 0.15
33 0.15
34 0.15
35 0.15
36 0.15
37 0.15
4 -0.34
5 -0.36
6 -0.43
7 -0.36
8 -0.57
9 -0.14

> <PUBCHEM_EFFECTIVE_ROTOR_COUNT>
8

> <PUBCHEM_PHARMACOPHORE_FEATURES>
5
1 5 acceptor
1 7 acceptor
1 8 acceptor
6 15 18 19 20 21 22 rings
6 9 10 12 13 16 17 rings

> <PUBCHEM_HEAVY_ATOM_COUNT>
27

> <PUBCHEM_ATOM_DEF_STEREO_COUNT>
0

> <PUBCHEM_ATOM_UDEF_STEREO_COUNT>
0

> <PUBCHEM_BOND_DEF_STEREO_COUNT>
1

> <PUBCHEM_BOND_UDEF_STEREO_COUNT>
0

> <PUBCHEM_ISOTOPIC_ATOM_COUNT>
0

> <PUBCHEM_COMPONENT_COUNT>
1

> <PUBCHEM_CACTVS_TAUTO_COUNT>
1

> <PUBCHEM_CONFORMER_ID>
039015E900000002

> <PUBCHEM_MMFF94_ENERGY>
80.5805

> <PUBCHEM_FEATURE_SELFOVERLAP>
25.373

> <PUBCHEM_SHAPE_FINGERPRINT>
10366900 7 18113892810131912086
107951 10 17749676182038819931
11578080 2 17487038214871533473
12166972 35 16773500149147075273
12236239 1 16487251045735305916
12553582 1 16732972146220421932
12596599 1 17774179996758866326
12788726 201 18192143794477469560
13402501 40 18335139756613775108
13944108 23 16893687460369163061
14142880 1 11311789375594152655
15361156 5 18260835937877781708
17349148 13 17060340708256922348
18393751 57 16757454155650918353
20681677 155 17240205413114122520
23559900 14 18411410735044272560
3411729 13 17391065942472027685
4015057 19 18341880935603171837
4073 2 17313115163845780584
44062 13 18413105082430630919
444769 64 12324227387912039640
469060 322 17262983153698267241
4921388 177 16515697657766034512
508706 21 18260545671028941946
5265222 85 17968675877509549326
5364581 5 18116427245107667488
633830 44 17676487285035525900
9709674 26 18190176978243276625

> <PUBCHEM_SHAPE_MULTIPOLES>
512.22
11.5
3.08
2.19
17.1
0.58
-2.24
-0.11
3.23
-2.94
1.31
-2.19
0.9
0.66

> <PUBCHEM_SHAPE_SELFOVERLAP>
1082.571

> <PUBCHEM_SHAPE_VOLUME>
289.3

> <PUBCHEM_COORDINATE_TYPE>
2
5
10

$$$$
