89881183
  -OEChem-07232423013D

 45 48  0     0  0  0  0  0  0999 V2000
    7.8364    1.1472    0.6317 Cl  0  0  0  0  0  0  0  0  0  0  0  0
   -0.8931   -1.0620    0.3102 O   0  0  0  0  0  0  0  0  0  0  0  0
   -2.8753    3.1659    0.9793 O   0  0  0  0  0  0  0  0  0  0  0  0
   -2.4815    1.2663   -0.3590 N   0  0  0  0  0  0  0  0  0  0  0  0
    2.4823   -1.2284   -0.1064 N   0  0  0  0  0  0  0  0  0  0  0  0
   -1.1439    2.9397   -0.6001 N   0  0  0  0  0  0  0  0  0  0  0  0
   -1.5510    0.9582   -1.3075 N   0  0  0  0  0  0  0  0  0  0  0  0
    1.3870   -0.5867    0.3345 N   0  0  0  0  0  0  0  0  0  0  0  0
   -0.7645    1.9424   -1.4482 N   0  0  0  0  0  0  0  0  0  0  0  0
   -3.2391   -1.0252   -0.0798 C   0  0  0  0  0  0  0  0  0  0  0  0
   -3.4718    0.3479   -0.0011 C   0  0  0  0  0  0  0  0  0  0  0  0
   -4.2414   -1.9244    0.2842 C   0  0  0  0  0  0  0  0  0  0  0  0
   -1.9155   -1.5383   -0.5536 C   0  0  0  0  0  0  0  0  0  0  0  0
   -4.7069    0.8216    0.4415 C   0  0  0  0  0  0  0  0  0  0  0  0
   -5.4765   -1.4506    0.7268 C   0  0  0  0  0  0  0  0  0  0  0  0
   -5.7091   -0.0777    0.8054 C   0  0  0  0  0  0  0  0  0  0  0  0
   -4.0187   -3.3993    0.2090 C   0  0  0  0  0  0  0  0  0  0  0  0
   -2.2583    2.5435    0.1302 C   0  0  0  0  0  0  0  0  0  0  0  0
    0.3944   -1.4150   -0.0016 C   0  0  0  0  0  0  0  0  0  0  0  0
    3.7460   -0.6677    0.0658 C   0  0  0  0  0  0  0  0  0  0  0  0
    0.8525   -2.5765   -0.6519 C   0  0  0  0  0  0  0  0  0  0  0  0
    2.2167   -2.4248   -0.7052 C   0  0  0  0  0  0  0  0  0  0  0  0
   -0.4886    4.2129   -0.4788 C   0  0  0  0  0  0  0  0  0  0  0  0
    4.8778   -1.3417   -0.3932 C   0  0  0  0  0  0  0  0  0  0  0  0
    3.8793    0.5680    0.6990 C   0  0  0  0  0  0  0  0  0  0  0  0
    6.1426   -0.7803   -0.2190 C   0  0  0  0  0  0  0  0  0  0  0  0
    5.1442    1.1295    0.8735 C   0  0  0  0  0  0  0  0  0  0  0  0
    6.2758    0.4554    0.4144 C   0  0  0  0  0  0  0  0  0  0  0  0
   -1.8754   -2.6296   -0.5220 H   0  0  0  0  0  0  0  0  0  0  0  0
   -1.7394   -1.2919   -1.6080 H   0  0  0  0  0  0  0  0  0  0  0  0
   -4.9323    1.8825    0.4915 H   0  0  0  0  0  0  0  0  0  0  0  0
   -6.2691   -2.1367    1.0131 H   0  0  0  0  0  0  0  0  0  0  0  0
   -6.6728    0.2910    1.1445 H   0  0  0  0  0  0  0  0  0  0  0  0
   -3.7965   -3.7106   -0.8172 H   0  0  0  0  0  0  0  0  0  0  0  0
   -4.9126   -3.9544    0.5164 H   0  0  0  0  0  0  0  0  0  0  0  0
   -3.2121   -3.7082    0.8822 H   0  0  0  0  0  0  0  0  0  0  0  0
    0.2874   -3.4152   -1.0310 H   0  0  0  0  0  0  0  0  0  0  0  0
    2.9611   -3.0872   -1.1220 H   0  0  0  0  0  0  0  0  0  0  0  0
    0.5505    4.0459   -0.1830 H   0  0  0  0  0  0  0  0  0  0  0  0
   -0.9863    4.8344    0.2699 H   0  0  0  0  0  0  0  0  0  0  0  0
   -0.5166    4.7162   -1.4488 H   0  0  0  0  0  0  0  0  0  0  0  0
    4.8399   -2.3038   -0.8922 H   0  0  0  0  0  0  0  0  0  0  0  0
    3.0245    1.1266    1.0713 H   0  0  0  0  0  0  0  0  0  0  0  0
    7.0162   -1.3163   -0.5812 H   0  0  0  0  0  0  0  0  0  0  0  0
    5.2335    2.0930    1.3689 H   0  0  0  0  0  0  0  0  0  0  0  0
  1 28  1  0  0  0  0
  2 13  1  0  0  0  0
  2 19  1  0  0  0  0
  3 18  2  0  0  0  0
  4  7  1  0  0  0  0
  4 11  1  0  0  0  0
  4 18  1  0  0  0  0
  5  8  1  0  0  0  0
  5 20  1  0  0  0  0
  5 22  1  0  0  0  0
  6  9  1  0  0  0  0
  6 18  1  0  0  0  0
  6 23  1  0  0  0  0
  7  9  2  0  0  0  0
  8 19  2  0  0  0  0
 10 11  1  0  0  0  0
 10 12  2  0  0  0  0
 10 13  1  0  0  0  0
 11 14  2  0  0  0  0
 12 15  1  0  0  0  0
 12 17  1  0  0  0  0
 13 29  1  0  0  0  0
 13 30  1  0  0  0  0
 14 16  1  0  0  0  0
 14 31  1  0  0  0  0
 15 16  2  0  0  0  0
 15 32  1  0  0  0  0
 16 33  1  0  0  0  0
 17 34  1  0  0  0  0
 17 35  1  0  0  0  0
 17 36  1  0  0  0  0
 19 21  1  0  0  0  0
 20 24  2  0  0  0  0
 20 25  1  0  0  0  0
 21 22  2  0  0  0  0
 21 37  1  0  0  0  0
 22 38  1  0  0  0  0
 23 39  1  0  0  0  0
 23 40  1  0  0  0  0
 23 41  1  0  0  0  0
 24 26  1  0  0  0  0
 24 42  1  0  0  0  0
 25 27  2  0  0  0  0
 25 43  1  0  0  0  0
 26 28  2  0  0  0  0
 26 44  1  0  0  0  0
 27 28  1  0  0  0  0
 27 45  1  0  0  0  0
M  END
> <PUBCHEM_COMPOUND_CID>
89881183

> <PUBCHEM_CONFORMER_RMSD>
0.8

> <PUBCHEM_CONFORMER_DIVERSEORDER>
2
39
54
60
115
106
159
63
124
9
3
205
192
109
36
130
183
202
126
178
90
123
182
17
127
148
58
136
113
195
64
116
50
117
197
157
22
166
114
37
134
194
56
48
4
191
21
81
155
188
62
135
169
181
139
153
193
55
10
104
97
160
176
49
184
189
158
85
161
41
93
72
141
18
51
25
174
163
101
145
118
26
29
53
20
208
167
5
68
170
162
175
46
24
164
35
200
125
99
146
196
84
47
86
147
14
165
11
67
152
80
33
171
1
65
94
209
140
172
122
79
100
102
110
131
151
186
32
23
103
92
66
206
96
156
142
88
133
15
143
6
43
207
83
149
111
42
89
82
108
75
138
16
12
154
137
78
203
120
180
105
30
7
144
59
91
57
98
179
204
38
52
121
95
77
13
201
61
107
132
173
177
73
190
27
45
128
19
87
129
8
71
168
119
112
185
70
198
69
150
31
187
199
40
74
34
44
28
76

> <PUBCHEM_MMFF94_PARTIAL_CHARGES>
37
1 -0.18
10 -0.14
11 0.12
12 -0.14
13 0.42
14 -0.15
15 -0.15
16 -0.15
17 0.14
18 0.69
19 0.35
2 -0.34
20 -0.02
21 -0.15
22 -0.3
23 0.3
24 -0.15
25 -0.15
26 -0.15
27 -0.15
28 0.18
3 -0.57
31 0.15
32 0.15
33 0.15
37 0.15
38 0.15
4 -0.11
42 0.15
43 0.15
44 0.15
45 0.15
5 0.59
6 -0.3
7 -0.06
8 -0.71
9 -0.06

> <PUBCHEM_EFFECTIVE_ROTOR_COUNT>
5

> <PUBCHEM_PHARMACOPHORE_FEATURES>
5
1 3 acceptor
5 4 6 7 9 18 rings
5 5 8 19 21 22 rings
6 10 11 12 14 15 16 rings
6 20 24 25 26 27 28 rings

> <PUBCHEM_HEAVY_ATOM_COUNT>
28

> <PUBCHEM_ATOM_DEF_STEREO_COUNT>
0

> <PUBCHEM_ATOM_UDEF_STEREO_COUNT>
0

> <PUBCHEM_BOND_DEF_STEREO_COUNT>
0

> <PUBCHEM_BOND_UDEF_STEREO_COUNT>
0

> <PUBCHEM_ISOTOPIC_ATOM_COUNT>
0

> <PUBCHEM_COMPONENT_COUNT>
1

> <PUBCHEM_CACTVS_TAUTO_COUNT>
1

> <PUBCHEM_CONFORMER_ID>
055B7A5F00000002

> <PUBCHEM_MMFF94_ENERGY>
92.1512

> <PUBCHEM_FEATURE_SELFOVERLAP>
25.374

> <PUBCHEM_SHAPE_FINGERPRINT>
10 15 18408041831717200794
10006869 2 18191859021287297123
10165383 225 17989488532420858570
10290309 65 18189050898549622983
10369192 42 17561083635758993036
10670039 82 18335154064025317644
1100329 8 18335710489886596235
11595378 159 17895744115571100826
12166972 35 17313106388568192782
12596602 18 17313095350776580952
12925494 130 18199464364096037417
13402501 40 18413106173737218520
13726171 33 18340206271967198312
14341114 176 18409451358337067038
14933364 13 18342742931650381698
15183329 4 9943533998453534350
15419008 145 18335406939163100120
15961568 22 18409451392881350556
17349148 13 17022910042497463638
18336668 15 17967816084959631149
18608769 82 18341048605854170706
19611394 137 17971201571118789562
21033648 29 18059281176278070138
22956985 138 17105668337358882963
23557571 272 18336553741462689407
23559900 14 18339916113004269401
24771293 8 18273221881342083673
25019877 29 17703795867808557974
2747138 104 18262815041585516363
350125 39 18413389860817421256
392239 28 18408046225130816105
4073 2 18262242222230558042
469060 322 17240770540431139117
5104073 3 18265045843747307154
7399639 24 18343023255143626638

> <PUBCHEM_SHAPE_MULTIPOLES>
536.47
15.94
3.93
0.94
21.64
2.77
-0.09
-1.26
4.97
-3.42
-0.62
-0.08
0.24
1.06

> <PUBCHEM_SHAPE_SELFOVERLAP>
1170.02

> <PUBCHEM_SHAPE_VOLUME>
294.6

> <PUBCHEM_COORDINATE_TYPE>
2
5
10

$$$$
