45380430
  -OEChem-07232422513D

 50 51  0     0  0  0  0  0  0999 V2000
    4.3630    2.7436   -1.1970 Cl  0  0  0  0  0  0  0  0  0  0  0  0
    4.0577   -2.3521    0.7964 Cl  0  0  0  0  0  0  0  0  0  0  0  0
   -1.1868    1.3980    0.7059 O   0  0  0  0  0  0  0  0  0  0  0  0
   -3.3898   -1.0195   -2.4757 O   0  0  0  0  0  0  0  0  0  0  0  0
   -2.6944   -1.6758    1.9732 O   0  0  0  0  0  0  0  0  0  0  0  0
   -2.6284   -1.6631   -1.4902 N   0  0  0  0  0  0  0  0  0  0  0  0
   -0.8850   -2.2195    0.5820 N   0  0  0  0  0  0  0  0  0  0  0  0
    0.1556    1.2767    0.3263 N   0  0  0  0  0  0  0  0  0  0  0  0
   -3.3845    1.2867   -0.1965 C   0  0  0  0  0  0  0  0  0  0  0  0
   -3.8043   -0.0414   -0.1230 C   0  0  0  0  0  0  0  0  0  0  0  0
   -1.9561    1.6311   -0.4663 C   0  0  0  0  0  0  0  0  0  0  0  0
   -4.3043    2.3199   -0.0167 C   0  0  0  0  0  0  0  0  0  0  0  0
   -5.1437   -0.3365    0.1301 C   0  0  0  0  0  0  0  0  0  0  0  0
   -2.8451   -1.1628   -0.3112 C   0  0  0  0  0  0  0  0  0  0  0  0
   -5.6440    2.0248    0.2366 C   0  0  0  0  0  0  0  0  0  0  0  0
   -6.0636    0.6966    0.3101 C   0  0  0  0  0  0  0  0  0  0  0  0
   -2.1297   -1.7181    0.8919 C   0  0  0  0  0  0  0  0  0  0  0  0
    4.3148    0.1809   -0.2227 C   0  0  0  0  0  0  0  0  0  0  0  0
    0.9177    1.0610    1.3581 C   0  0  0  0  0  0  0  0  0  0  0  0
    2.8812    0.3754    0.0568 C   0  0  0  0  0  0  0  0  0  0  0  0
    2.3892    0.8806    1.1968 C   0  0  0  0  0  0  0  0  0  0  0  0
    5.0606    1.2116   -0.7944 C   0  0  0  0  0  0  0  0  0  0  0  0
    4.9261   -1.0344    0.0854 C   0  0  0  0  0  0  0  0  0  0  0  0
    0.3868    0.9437    2.7704 C   0  0  0  0  0  0  0  0  0  0  0  0
    6.4179    1.0271   -1.0581 C   0  0  0  0  0  0  0  0  0  0  0  0
    6.2833   -1.2191   -0.1781 C   0  0  0  0  0  0  0  0  0  0  0  0
    7.0292   -0.1882   -0.7499 C   0  0  0  0  0  0  0  0  0  0  0  0
   -0.0291   -2.8036    1.5852 C   0  0  0  0  0  0  0  0  0  0  0  0
   -3.0946   -1.6237   -3.7256 C   0  0  0  0  0  0  0  0  0  0  0  0
   -1.8488    2.6865   -0.7449 H   0  0  0  0  0  0  0  0  0  0  0  0
   -1.5799    1.0426   -1.3132 H   0  0  0  0  0  0  0  0  0  0  0  0
   -3.9933    3.3599   -0.0687 H   0  0  0  0  0  0  0  0  0  0  0  0
   -5.4823   -1.3676    0.1893 H   0  0  0  0  0  0  0  0  0  0  0  0
   -6.3602    2.8291    0.3771 H   0  0  0  0  0  0  0  0  0  0  0  0
   -7.1066    0.4669    0.5073 H   0  0  0  0  0  0  0  0  0  0  0  0
    2.2249    0.0819   -0.7591 H   0  0  0  0  0  0  0  0  0  0  0  0
    3.0299    1.1624    2.0250 H   0  0  0  0  0  0  0  0  0  0  0  0
   -0.5448   -2.1720   -0.3740 H   0  0  0  0  0  0  0  0  0  0  0  0
   -0.0855    1.8865    3.0615 H   0  0  0  0  0  0  0  0  0  0  0  0
    1.1892    0.7237    3.4799 H   0  0  0  0  0  0  0  0  0  0  0  0
   -0.3494    0.1372    2.8238 H   0  0  0  0  0  0  0  0  0  0  0  0
    7.0146    1.8196   -1.5028 H   0  0  0  0  0  0  0  0  0  0  0  0
    6.7762   -2.1594    0.0556 H   0  0  0  0  0  0  0  0  0  0  0  0
    8.0860   -0.3319   -0.9551 H   0  0  0  0  0  0  0  0  0  0  0  0
    0.8484   -2.1635    1.7002 H   0  0  0  0  0  0  0  0  0  0  0  0
    0.2875   -3.7884    1.2331 H   0  0  0  0  0  0  0  0  0  0  0  0
   -0.5434   -2.8996    2.5444 H   0  0  0  0  0  0  0  0  0  0  0  0
   -2.0329   -1.5056   -3.9637 H   0  0  0  0  0  0  0  0  0  0  0  0
   -3.3615   -2.6849   -3.7078 H   0  0  0  0  0  0  0  0  0  0  0  0
   -3.6853   -1.1259   -4.4990 H   0  0  0  0  0  0  0  0  0  0  0  0
  1 22  1  0  0  0  0
  2 23  1  0  0  0  0
  3  8  1  0  0  0  0
  3 11  1  0  0  0  0
  4  6  1  0  0  0  0
  4 29  1  0  0  0  0
  5 17  2  0  0  0  0
  6 14  2  0  0  0  0
  7 17  1  0  0  0  0
  7 28  1  0  0  0  0
  7 38  1  0  0  0  0
  8 19  2  0  0  0  0
  9 10  1  0  0  0  0
  9 11  1  0  0  0  0
  9 12  2  0  0  0  0
 10 13  2  0  0  0  0
 10 14  1  0  0  0  0
 11 30  1  0  0  0  0
 11 31  1  0  0  0  0
 12 15  1  0  0  0  0
 12 32  1  0  0  0  0
 13 16  1  0  0  0  0
 13 33  1  0  0  0  0
 14 17  1  0  0  0  0
 15 16  2  0  0  0  0
 15 34  1  0  0  0  0
 16 35  1  0  0  0  0
 18 20  1  0  0  0  0
 18 22  2  0  0  0  0
 18 23  1  0  0  0  0
 19 21  1  0  0  0  0
 19 24  1  0  0  0  0
 20 21  2  0  0  0  0
 20 36  1  0  0  0  0
 21 37  1  0  0  0  0
 22 25  1  0  0  0  0
 23 26  2  0  0  0  0
 24 39  1  0  0  0  0
 24 40  1  0  0  0  0
 24 41  1  0  0  0  0
 25 27  2  0  0  0  0
 25 42  1  0  0  0  0
 26 27  1  0  0  0  0
 26 43  1  0  0  0  0
 27 44  1  0  0  0  0
 28 45  1  0  0  0  0
 28 46  1  0  0  0  0
 28 47  1  0  0  0  0
 29 48  1  0  0  0  0
 29 49  1  0  0  0  0
 29 50  1  0  0  0  0
M  END
> <PUBCHEM_COMPOUND_CID>
45380430

> <PUBCHEM_CONFORMER_RMSD>
1

> <PUBCHEM_CONFORMER_DIVERSEORDER>
1
59
61
77
52
50
78
14
40
28
42
46
67
91
38
21
96
65
66
6
105
74
47
103
34
71
62
5
45
31
85
25
63
81
18
98
83
53
39
17
100
4
76
57
104
3
80
70
88
32
15
49
69
41
97
82
95
99
86
68
7
94
84
9
101
93
43
20
90
37
55
64
30
79
54
19
13
106
92
87
35
44
73
22
26
51
23
24
48
89
36
12
58
102
11
75
72
60
29
107
56
10
27
16
33
8
2

> <PUBCHEM_MMFF94_PARTIAL_CHARGES>
39
1 -0.18
10 0.09
11 0.42
12 -0.15
13 -0.15
14 0.36
15 -0.15
16 -0.15
17 0.63
18 0.03
19 0.37
2 -0.18
20 -0.18
21 -0.14
22 0.18
23 0.18
24 0.06
25 -0.15
26 -0.15
27 -0.15
28 0.3
29 0.28
3 -0.22
32 0.15
33 0.15
34 0.15
35 0.15
36 0.15
37 0.15
38 0.37
4 -0.22
42 0.15
43 0.15
44 0.15
5 -0.57
6 -0.51
7 -0.73
8 -0.51
9 -0.14

> <PUBCHEM_EFFECTIVE_ROTOR_COUNT>
9

> <PUBCHEM_PHARMACOPHORE_FEATURES>
6
1 5 acceptor
1 6 acceptor
1 7 donor
1 8 acceptor
6 18 22 23 25 26 27 rings
6 9 10 12 13 15 16 rings

> <PUBCHEM_HEAVY_ATOM_COUNT>
29

> <PUBCHEM_ATOM_DEF_STEREO_COUNT>
0

> <PUBCHEM_ATOM_UDEF_STEREO_COUNT>
0

> <PUBCHEM_BOND_DEF_STEREO_COUNT>
3

> <PUBCHEM_BOND_UDEF_STEREO_COUNT>
0

> <PUBCHEM_ISOTOPIC_ATOM_COUNT>
0

> <PUBCHEM_COMPONENT_COUNT>
1

> <PUBCHEM_CACTVS_TAUTO_COUNT>
2

> <PUBCHEM_CONFORMER_ID>
02B4734E00000001

> <PUBCHEM_MMFF94_ENERGY>
77.9143

> <PUBCHEM_FEATURE_SELFOVERLAP>
30.447

> <PUBCHEM_SHAPE_FINGERPRINT>
107951 10 18260834782637197355
11135609 149 16952233328465228842
11135609 201 8357388373533634486
11135926 11 18040708157221575258
11524674 6 16559028277456875749
11796584 16 17775287162324637268
12166972 35 13398619559284256553
12788726 201 18058735689086888936
12977781 61 12964831470535318775
13782708 43 16915932049872440463
13914758 101 13758080649796248681
14840074 17 16950568782885688412
15183329 4 18260548905244654928
15274700 147 14934685970089456668
15537594 2 18272649034898061790
15575132 122 17240758446141012813
18608769 82 18262526995783902003
23198884 109 18040720264085250529
23559900 14 18411978100693534048
249057 3 18334862710334097444
3004659 81 18410575055400180856
3383291 50 16128653072694728063
4073 2 17895484730091208888
4098825 35 18260556648970560554
44062 13 17632570600056995567
469060 322 14346356878400121835
5265222 85 18271529787943046508
59755656 520 18113618988655437499
613672 6 14620798223398685098

> <PUBCHEM_SHAPE_MULTIPOLES>
567.99
16.46
2.87
2.15
13.81
0.49
1.35
-3.61
5.05
-0.16
-0.2
-1.87
1
-1.81

> <PUBCHEM_SHAPE_SELFOVERLAP>
1169.742

> <PUBCHEM_SHAPE_VOLUME>
327.1

> <PUBCHEM_COORDINATE_TYPE>
2
5
10

$$$$
