45381137
  -OEChem-07232422313D

 51 53  0     0  0  0  0  0  0999 V2000
    0.6269    1.3138   -0.9519 O   0  0  0  0  0  0  0  0  0  0  0  0
    1.2602   -0.8329    1.1455 O   0  0  0  0  0  0  0  0  0  0  0  0
    2.0331   -3.0541    0.2824 O   0  0  0  0  0  0  0  0  0  0  0  0
    3.9839   -2.2793   -0.6030 O   0  0  0  0  0  0  0  0  0  0  0  0
   -1.0674   -0.1502   -1.7918 N   0  0  0  0  0  0  0  0  0  0  0  0
   -2.3408   -0.5362   -1.6032 N   0  0  0  0  0  0  0  0  0  0  0  0
    2.5157   -0.8226    0.4829 N   0  0  0  0  0  0  0  0  0  0  0  0
   -1.7146    1.0557   -0.0893 C   0  0  0  0  0  0  0  0  0  0  0  0
   -0.6437    0.8013   -0.9111 C   0  0  0  0  0  0  0  0  0  0  0  0
   -2.7309    0.2038   -0.5618 C   0  0  0  0  0  0  0  0  0  0  0  0
    1.1837    1.7455    0.2825 C   0  0  0  0  0  0  0  0  0  0  0  0
    2.6711    1.6123    0.2266 C   0  0  0  0  0  0  0  0  0  0  0  0
   -4.0695    0.0761   -0.0443 C   0  0  0  0  0  0  0  0  0  0  0  0
   -1.7710    2.0104    1.0324 C   0  0  0  0  0  0  0  0  0  0  0  0
    3.2882    0.3653    0.3252 C   0  0  0  0  0  0  0  0  0  0  0  0
   -0.2981   -0.7492   -2.8576 C   0  0  0  0  0  0  0  0  0  0  0  0
    3.4442    2.7630    0.0725 C   0  0  0  0  0  0  0  0  0  0  0  0
   -4.2702   -0.3175    1.2788 C   0  0  0  0  0  0  0  0  0  0  0  0
   -5.1642    0.3453   -0.8655 C   0  0  0  0  0  0  0  0  0  0  0  0
    4.6786    0.2690    0.2698 C   0  0  0  0  0  0  0  0  0  0  0  0
    4.8347    2.6666    0.0172 C   0  0  0  0  0  0  0  0  0  0  0  0
    5.4520    1.4197    0.1158 C   0  0  0  0  0  0  0  0  0  0  0  0
   -5.5658   -0.4418    1.7807 C   0  0  0  0  0  0  0  0  0  0  0  0
   -6.4597    0.2211   -0.3638 C   0  0  0  0  0  0  0  0  0  0  0  0
   -6.6605   -0.1725    0.9594 C   0  0  0  0  0  0  0  0  0  0  0  0
    2.9367   -2.0573   -0.0015 C   0  0  0  0  0  0  0  0  0  0  0  0
    1.4676   -1.0844    2.5358 C   0  0  0  0  0  0  0  0  0  0  0  0
    2.3797   -4.3708   -0.1627 C   0  0  0  0  0  0  0  0  0  0  0  0
    0.7685    1.2823    1.1773 H   0  0  0  0  0  0  0  0  0  0  0  0
    0.9353    2.8101    0.3819 H   0  0  0  0  0  0  0  0  0  0  0  0
   -2.8039    2.2858    1.2702 H   0  0  0  0  0  0  0  0  0  0  0  0
   -1.2597    2.9469    0.7930 H   0  0  0  0  0  0  0  0  0  0  0  0
   -1.3326    1.5805    1.9381 H   0  0  0  0  0  0  0  0  0  0  0  0
    0.5817   -0.1377   -3.0699 H   0  0  0  0  0  0  0  0  0  0  0  0
   -0.9255   -0.8088   -3.7508 H   0  0  0  0  0  0  0  0  0  0  0  0
    0.0053   -1.7482   -2.5349 H   0  0  0  0  0  0  0  0  0  0  0  0
    2.9816    3.7431   -0.0075 H   0  0  0  0  0  0  0  0  0  0  0  0
   -3.4302   -0.5374    1.9335 H   0  0  0  0  0  0  0  0  0  0  0  0
   -5.0279    0.6567   -1.8985 H   0  0  0  0  0  0  0  0  0  0  0  0
    5.2142   -0.6640    0.4066 H   0  0  0  0  0  0  0  0  0  0  0  0
    5.4371    3.5628   -0.0997 H   0  0  0  0  0  0  0  0  0  0  0  0
    6.5353    1.3472    0.0876 H   0  0  0  0  0  0  0  0  0  0  0  0
   -5.7222   -0.7493    2.8105 H   0  0  0  0  0  0  0  0  0  0  0  0
   -7.3123    0.4315   -1.0028 H   0  0  0  0  0  0  0  0  0  0  0  0
   -7.6693   -0.2694    1.3500 H   0  0  0  0  0  0  0  0  0  0  0  0
    1.9625   -2.0462    2.6992 H   0  0  0  0  0  0  0  0  0  0  0  0
    2.0551   -0.2785    2.9868 H   0  0  0  0  0  0  0  0  0  0  0  0
    0.4889   -1.1117    3.0226 H   0  0  0  0  0  0  0  0  0  0  0  0
    2.4723   -4.3890   -1.2527 H   0  0  0  0  0  0  0  0  0  0  0  0
    3.3095   -4.6980    0.3120 H   0  0  0  0  0  0  0  0  0  0  0  0
    1.5764   -5.0508    0.1327 H   0  0  0  0  0  0  0  0  0  0  0  0
  1  9  1  0  0  0  0
  1 11  1  0  0  0  0
  2  7  1  0  0  0  0
  2 27  1  0  0  0  0
  3 26  1  0  0  0  0
  3 28  1  0  0  0  0
  4 26  2  0  0  0  0
  5  6  1  0  0  0  0
  5  9  1  0  0  0  0
  5 16  1  0  0  0  0
  6 10  2  0  0  0  0
  7 15  1  0  0  0  0
  7 26  1  0  0  0  0
  8  9  2  0  0  0  0
  8 10  1  0  0  0  0
  8 14  1  0  0  0  0
 10 13  1  0  0  0  0
 11 12  1  0  0  0  0
 11 29  1  0  0  0  0
 11 30  1  0  0  0  0
 12 15  1  0  0  0  0
 12 17  2  0  0  0  0
 13 18  2  0  0  0  0
 13 19  1  0  0  0  0
 14 31  1  0  0  0  0
 14 32  1  0  0  0  0
 14 33  1  0  0  0  0
 15 20  2  0  0  0  0
 16 34  1  0  0  0  0
 16 35  1  0  0  0  0
 16 36  1  0  0  0  0
 17 21  1  0  0  0  0
 17 37  1  0  0  0  0
 18 23  1  0  0  0  0
 18 38  1  0  0  0  0
 19 24  2  0  0  0  0
 19 39  1  0  0  0  0
 20 22  1  0  0  0  0
 20 40  1  0  0  0  0
 21 22  2  0  0  0  0
 21 41  1  0  0  0  0
 22 42  1  0  0  0  0
 23 25  2  0  0  0  0
 23 43  1  0  0  0  0
 24 25  1  0  0  0  0
 24 44  1  0  0  0  0
 25 45  1  0  0  0  0
 27 46  1  0  0  0  0
 27 47  1  0  0  0  0
 27 48  1  0  0  0  0
 28 49  1  0  0  0  0
 28 50  1  0  0  0  0
 28 51  1  0  0  0  0
M  END
> <PUBCHEM_COMPOUND_CID>
45381137

> <PUBCHEM_CONFORMER_RMSD>
1

> <PUBCHEM_CONFORMER_DIVERSEORDER>
3
57
78
114
122
50
18
5
104
61
41
127
55
42
130
103
144
40
65
92
32
46
36
156
2
34
68
25
19
63
12
31
94
150
115
128
39
73
151
85
7
77
97
133
37
162
23
22
161
119
4
33
84
75
105
158
16
51
20
137
110
30
138
10
28
157
56
64
118
131
113
15
43
87
47
86
155
49
129
76
125
154
141
71
98
111
17
89
88
149
11
29
117
139
26
21
106
82
99
160
146
35
13
74
24
81
91
109
132
112
143
52
126
66
1
101
38
79
120
93
107
147
163
83
14
100
58
108
134
152
142
159
44
116
135
48
95
102
9
145
69
27
140
148
53
72
123
6
136
62
60
124
80
54
67
90
8
70
121
96
59
45
153

> <PUBCHEM_MMFF94_PARTIAL_CHARGES>
37
1 -0.34
10 0.23
11 0.42
12 -0.14
13 0.05
14 0.18
15 0.12
16 0.26
17 -0.15
18 -0.15
19 -0.15
2 -0.32
20 -0.15
21 -0.15
22 -0.15
23 -0.15
24 -0.15
25 -0.15
26 0.78
27 0.28
28 0.28
3 -0.43
37 0.15
38 0.15
39 0.15
4 -0.57
40 0.15
41 0.15
42 0.15
43 0.15
44 0.15
45 0.15
5 0.31
6 -0.71
7 -0.14
8 -0.18
9 -0.09

> <PUBCHEM_EFFECTIVE_ROTOR_COUNT>
8

> <PUBCHEM_PHARMACOPHORE_FEATURES>
6
1 1 acceptor
1 4 acceptor
1 6 acceptor
5 5 6 8 9 10 rings
6 12 15 17 20 21 22 rings
6 13 18 19 23 24 25 rings

> <PUBCHEM_HEAVY_ATOM_COUNT>
28

> <PUBCHEM_ATOM_DEF_STEREO_COUNT>
0

> <PUBCHEM_ATOM_UDEF_STEREO_COUNT>
0

> <PUBCHEM_BOND_DEF_STEREO_COUNT>
0

> <PUBCHEM_BOND_UDEF_STEREO_COUNT>
0

> <PUBCHEM_ISOTOPIC_ATOM_COUNT>
0

> <PUBCHEM_COMPONENT_COUNT>
1

> <PUBCHEM_CACTVS_TAUTO_COUNT>
1

> <PUBCHEM_CONFORMER_ID>
02B4761100000003

> <PUBCHEM_MMFF94_ENERGY>
90.802

> <PUBCHEM_FEATURE_SELFOVERLAP>
30.448

> <PUBCHEM_SHAPE_FINGERPRINT>
10369192 42 17823134691488003884
10674148 151 17275114951142437188
11112241 14 18267018556364649761
11421498 54 18060425694235125456
11578080 2 17767959093973421768
11796584 16 17748827419666070035
12107183 9 17766849320993340673
12128747 34 18188765029916158669
12156800 1 17683555057506640302
12166972 35 11097847501834291068
12236239 1 18131349756225363533
12596602 18 18130513032587876731
12730499 353 18335143111420829842
12778500 126 18130518431161561409
12788726 201 17275113803652764729
13009979 54 17558268722667117314
13402501 40 17749391489735589169
13533116 47 18343301449102146875
13583140 156 18335412487633449653
13782708 43 17386282074236610474
13785724 45 17697609792141983015
14341114 176 18412831265707389981
14747282 140 13715523695745979123
14840074 17 18131353042149742757
14863182 85 18261118491186279804
15183329 4 11095618787680974053
15238133 3 16056883502815246682
15537594 2 18131349730302247765
15664445 248 16515694320386613142
17349148 13 12540687102808370281
19319366 153 18272927254579465514
1979834 28 18260270775878831692
20567600 75 18260543412540795669
21033650 10 15214141834717296269
21197605 99 17899426560158998067
21623969 137 18260832626399525713
22224240 67 17895750837079309608
23557571 272 15357964625661795068
23559900 14 17822582607843597391
239999 70 17894351081430354952
3052486 1 15647912555034967642
3178227 256 18334853936053229696
345986 75 17845368847682802467
3633792 109 18336539435918110677
4340502 62 18114463447950283737
437795 51 18335713753660873358
469060 322 16227157305040125746
59755656 215 18040716974219371072
8509985 295 16056879104726388011
86090 222 17822309958682295923

> <PUBCHEM_SHAPE_MULTIPOLES>
537.81
13.63
3.15
1.75
15.34
3.05
-0.3
-2.67
3.01
-6.17
0.1
1.25
0.57
0.15

> <PUBCHEM_SHAPE_SELFOVERLAP>
1152.854

> <PUBCHEM_SHAPE_VOLUME>
297.3

> <PUBCHEM_COORDINATE_TYPE>
2
5
10

$$$$
