11577870
  -OEChem-07232423003D

 45 46  0     0  0  0  0  0  0999 V2000
    5.1540    3.0212    0.3815 Cl  0  0  0  0  0  0  0  0  0  0  0  0
   -2.4210    0.2895   -0.1368 O   0  0  0  0  0  0  0  0  0  0  0  0
    5.8666   -2.4866    0.7125 O   0  0  0  0  0  0  0  0  0  0  0  0
    4.1795   -2.4607   -0.8458 O   0  0  0  0  0  0  0  0  0  0  0  0
    5.3452   -0.5384   -0.2728 N   0  0  0  0  0  0  0  0  0  0  0  0
   -1.2586    1.0601   -0.0089 N   0  0  0  0  0  0  0  0  0  0  0  0
   -5.3524   -0.0752    0.9076 N   0  0  0  0  0  0  0  0  0  0  0  0
    3.4857    1.0372   -0.4599 C   0  0  0  0  0  0  0  0  0  0  0  0
    1.1377    0.9813    0.0666 C   0  0  0  0  0  0  0  0  0  0  0  0
    2.2485    0.4112   -0.5553 C   0  0  0  0  0  0  0  0  0  0  0  0
    4.6598    0.3886   -1.1437 C   0  0  0  0  0  0  0  0  0  0  0  0
    3.6288    2.2242    0.2476 C   0  0  0  0  0  0  0  0  0  0  0  0
    1.2724    2.1730    0.7791 C   0  0  0  0  0  0  0  0  0  0  0  0
   -0.1606    0.3335   -0.0273 C   0  0  0  0  0  0  0  0  0  0  0  0
    2.5180    2.7943    0.8695 C   0  0  0  0  0  0  0  0  0  0  0  0
   -0.2320   -1.1917   -0.1600 C   0  0  0  0  0  0  0  0  0  0  0  0
   -4.7960    0.3605   -0.2406 C   0  0  0  0  0  0  0  0  0  0  0  0
   -3.5371    1.1658   -0.1049 C   0  0  0  0  0  0  0  0  0  0  0  0
   -6.4863   -0.8003    0.7802 C   0  0  0  0  0  0  0  0  0  0  0  0
   -5.3032    0.1153   -1.5021 C   0  0  0  0  0  0  0  0  0  0  0  0
   -7.0801   -1.1043   -0.4343 C   0  0  0  0  0  0  0  0  0  0  0  0
   -6.4710   -0.6341   -1.5924 C   0  0  0  0  0  0  0  0  0  0  0  0
    5.0464   -1.8826   -0.1985 C   0  0  0  0  0  0  0  0  0  0  0  0
   -7.1127   -1.2890    2.0435 C   0  0  0  0  0  0  0  0  0  0  0  0
    5.6683   -3.8930    0.8951 C   0  0  0  0  0  0  0  0  0  0  0  0
    2.1548   -0.5021   -1.1362 H   0  0  0  0  0  0  0  0  0  0  0  0
    4.3185   -0.1513   -2.0363 H   0  0  0  0  0  0  0  0  0  0  0  0
    5.3902    1.1179   -1.5067 H   0  0  0  0  0  0  0  0  0  0  0  0
    0.4233    2.6324    1.2783 H   0  0  0  0  0  0  0  0  0  0  0  0
    2.6068    3.7216    1.4298 H   0  0  0  0  0  0  0  0  0  0  0  0
    6.0800   -0.1779    0.3284 H   0  0  0  0  0  0  0  0  0  0  0  0
    0.7058   -1.6710    0.1315 H   0  0  0  0  0  0  0  0  0  0  0  0
   -1.0084   -1.5895    0.5004 H   0  0  0  0  0  0  0  0  0  0  0  0
   -0.4682   -1.4511   -1.1957 H   0  0  0  0  0  0  0  0  0  0  0  0
   -3.5497    1.7079    0.8489 H   0  0  0  0  0  0  0  0  0  0  0  0
   -3.4614    1.9046   -0.9124 H   0  0  0  0  0  0  0  0  0  0  0  0
   -4.8186    0.4853   -2.3989 H   0  0  0  0  0  0  0  0  0  0  0  0
   -7.9912   -1.6902   -0.4922 H   0  0  0  0  0  0  0  0  0  0  0  0
   -6.9052   -0.8518   -2.5636 H   0  0  0  0  0  0  0  0  0  0  0  0
   -6.5340   -0.9726    2.9175 H   0  0  0  0  0  0  0  0  0  0  0  0
   -8.1258   -0.8874    2.1462 H   0  0  0  0  0  0  0  0  0  0  0  0
   -7.1589   -2.3826    2.0473 H   0  0  0  0  0  0  0  0  0  0  0  0
    6.3832   -4.2422    1.6448 H   0  0  0  0  0  0  0  0  0  0  0  0
    4.6549   -4.0881    1.2583 H   0  0  0  0  0  0  0  0  0  0  0  0
    5.8534   -4.4259   -0.0424 H   0  0  0  0  0  0  0  0  0  0  0  0
  1 12  1  0  0  0  0
  2  6  1  0  0  0  0
  2 18  1  0  0  0  0
  3 23  1  0  0  0  0
  3 25  1  0  0  0  0
  4 23  2  0  0  0  0
  5 11  1  0  0  0  0
  5 23  1  0  0  0  0
  5 31  1  0  0  0  0
  6 14  2  0  0  0  0
  7 17  1  0  0  0  0
  7 19  2  0  0  0  0
  8 10  1  0  0  0  0
  8 11  1  0  0  0  0
  8 12  2  0  0  0  0
  9 10  2  0  0  0  0
  9 13  1  0  0  0  0
  9 14  1  0  0  0  0
 10 26  1  0  0  0  0
 11 27  1  0  0  0  0
 11 28  1  0  0  0  0
 12 15  1  0  0  0  0
 13 15  2  0  0  0  0
 13 29  1  0  0  0  0
 14 16  1  0  0  0  0
 15 30  1  0  0  0  0
 16 32  1  0  0  0  0
 16 33  1  0  0  0  0
 16 34  1  0  0  0  0
 17 18  1  0  0  0  0
 17 20  2  0  0  0  0
 18 35  1  0  0  0  0
 18 36  1  0  0  0  0
 19 21  1  0  0  0  0
 19 24  1  0  0  0  0
 20 22  1  0  0  0  0
 20 37  1  0  0  0  0
 21 22  2  0  0  0  0
 21 38  1  0  0  0  0
 22 39  1  0  0  0  0
 24 40  1  0  0  0  0
 24 41  1  0  0  0  0
 24 42  1  0  0  0  0
 25 43  1  0  0  0  0
 25 44  1  0  0  0  0
 25 45  1  0  0  0  0
M  END
> <PUBCHEM_COMPOUND_CID>
11577870

> <PUBCHEM_CONFORMER_RMSD>
1

> <PUBCHEM_CONFORMER_DIVERSEORDER>
1
359
276
169
144
239
386
343
324
125
255
259
410
120
54
387
83
231
71
365
271
327
275
361
102
294
63
250
317
286
329
260
393
402
8
403
416
104
65
14
378
413
171
322
420
25
11
177
240
311
243
245
341
405
409
69
414
357
330
373
78
175
92
77
355
235
179
396
336
61
241
398
415
411
107
320
335
53
389
247
67
98
303
147
232
137
70
299
354
345
279
146
91
66
348
394
151
418
289
325
116
123
376
209
160
401
296
73
20
134
262
291
305
62
248
113
222
388
89
340
22
183
323
366
238
314
225
362
99
17
221
332
41
223
423
153
290
74
180
364
339
397
181
263
319
142
5
164
368
165
161
302
43
268
399
133
334
424
56
261
383
281
226
381
110
140
186
194
50
82
344
352
277
273
114
367
321
135
212
148
124
150
6
391
408
360
301
185
52
170
242
213
10
254
141
272
392
108
190
407
342
220
172
79
68
404
337
215
87
121
93
129
216
189
266
375
167
412
34
224
33
29
197
138
4
60
156
109
385
300
203
421
35
274
256
7
315
84
351
3
269
249
297
154
318
159
328
90
270
103
257
51
406
377
94
19
211
210
55
2
201
157
145
265
384
95
168
204
326
234
312
346
132
86
115
130
338
58
44
374
42
15
112
36
163
316
217
358
47
372
202
356
246
298
258
195
230
32
72
30
419
152
229
307
200
219
400
347
128
252
309
390
97
40
206
111
131
422
192
105
191
188
205
76
26
425
9
46
227
126
143
96
166
75
333
237
233
267
80
214
207
253
236
417
24
218
283
349
178
106
64
379
228
182
100
295
162
173
282
139
382
155
57
118
174
370
28
49
251
38
39
13
369
136
288
12
21
293
16
45
306
187
88
350
363
208
371
59
395
31
184
304
331
122
23
101
310
198
18
313
380
117
149
308
48
27
85
287
285
292
158
264
81
127
176
244
353
196
37
280
119
199
278
193
284

> <PUBCHEM_MMFF94_PARTIAL_CHARGES>
32
1 -0.18
10 -0.15
11 0.44
12 0.18
13 -0.15
14 0.3
15 -0.15
16 0.06
17 0.17
18 0.42
19 0.17
2 -0.22
20 -0.15
21 -0.15
22 -0.15
23 0.78
24 0.14
25 0.28
26 0.15
29 0.15
3 -0.43
30 0.15
31 0.37
37 0.15
38 0.15
39 0.15
4 -0.57
5 -0.73
6 -0.51
7 -0.62
8 -0.14
9 0.09

> <PUBCHEM_EFFECTIVE_ROTOR_COUNT>
8

> <PUBCHEM_PHARMACOPHORE_FEATURES>
6
1 4 acceptor
1 5 donor
1 6 acceptor
1 7 acceptor
6 7 17 19 20 21 22 rings
6 8 9 10 12 13 15 rings

> <PUBCHEM_HEAVY_ATOM_COUNT>
25

> <PUBCHEM_ATOM_DEF_STEREO_COUNT>
0

> <PUBCHEM_ATOM_UDEF_STEREO_COUNT>
0

> <PUBCHEM_BOND_DEF_STEREO_COUNT>
1

> <PUBCHEM_BOND_UDEF_STEREO_COUNT>
0

> <PUBCHEM_ISOTOPIC_ATOM_COUNT>
0

> <PUBCHEM_COMPONENT_COUNT>
1

> <PUBCHEM_CACTVS_TAUTO_COUNT>
2

> <PUBCHEM_CONFORMER_ID>
00B0AA0E00000001

> <PUBCHEM_MMFF94_ENERGY>
60.3973

> <PUBCHEM_FEATURE_SELFOVERLAP>
30.447

> <PUBCHEM_SHAPE_FINGERPRINT>
10730089 47 18334012765800959366
12166972 35 18410298029525078061
12236239 1 17060066986255545049
12616971 3 17632297891451492141
12730499 353 18339928224643115380
13073987 5 18342740706277431128
13533116 47 18272933842922381608
13782708 43 18260547792726935863
13862211 1 18342454811720668439
13955234 65 18270958068036120480
14251764 18 17917432063975695700
14347332 77 18343018852928553365
15183329 4 18131353033422216591
15250474 111 17346024667424638311
15352257 5 18261118508382557787
15510794 2 18114178675224452451
1577012 14 17417818383088263361
19377110 9 17275110522197224435
20028762 73 17846497019443248182
21033650 10 16154268291997689381
21267235 1 18201447948145056468
21344244 78 17846205636836575328
220451 1 17846221119761173125
22061861 79 18260545628290044733
2303208 19 18041000661420581145
23081809 10 17417813976362030069
23522609 53 18056228905950829513
23559900 14 18040436611834310201
23569914 152 17473793175780705663
23569943 247 18336544898721535563
3014965 18 18408881828213881255
34797466 226 16950855802892245733
4073 2 18196090177531182168
46194498 28 17821446872393264012
465052 167 18413110533197654286
5104073 3 18060423486559034425
531348 171 18340478986064465413
5364581 5 12390925983334090615

> <PUBCHEM_SHAPE_MULTIPOLES>
483.81
21.11
3.36
1.26
26.82
1.79
0.1
11.57
1.42
-9.8
1.21
1.97
0.31
0.42

> <PUBCHEM_SHAPE_SELFOVERLAP>
1001.421

> <PUBCHEM_SHAPE_VOLUME>
278.2

> <PUBCHEM_COORDINATE_TYPE>
2
5
10

$$$$
