71766128
  -OEChem-07232421573D

 38 40  0     1  0  0  0  0  0999 V2000
   -2.1784   -0.0020   -2.4938 Cl  0  0  0  0  0  0  0  0  0  0  0  0
   -3.9300   -3.5887    1.1194 Cl  0  0  0  0  0  0  0  0  0  0  0  0
    0.9894   -0.5265   -1.7316 F   0  0  0  0  0  0  0  0  0  0  0  0
    2.5377   -2.0060   -2.1076 F   0  0  0  0  0  0  0  0  0  0  0  0
    0.9398   -2.4442   -0.7081 F   0  0  0  0  0  0  0  0  0  0  0  0
    2.0108    2.0001   -1.4313 O   0  0  0  0  0  0  0  0  0  0  0  0
    0.2865    1.5293    0.0443 N   0  0  0  0  0  0  0  0  0  0  0  0
    3.4005   -1.7255    0.6472 N   0  0  0  0  0  0  0  0  0  0  0  0
   -2.1928    2.1066   -0.1954 C   0  0  2  0  0  0  0  0  0  0  0  0
   -0.7070    2.4083   -0.5729 C   0  0  1  0  0  0  0  0  0  0  0  0
   -2.0078    3.1230    0.9689 C   0  0  0  0  0  0  0  0  0  0  0  0
   -0.8728    3.7649    0.1483 C   0  0  0  0  0  0  0  0  0  0  0  0
   -2.6395    0.6162    0.1171 C   0  0  0  0  0  0  0  0  0  0  0  0
   -2.6529   -0.3642   -0.8752 C   0  0  0  0  0  0  0  0  0  0  0  0
   -3.0254    0.2963    1.4188 C   0  0  0  0  0  0  0  0  0  0  0  0
    1.5846    1.3991   -0.4484 C   0  0  0  0  0  0  0  0  0  0  0  0
   -3.0524   -1.6644   -0.5657 C   0  0  0  0  0  0  0  0  0  0  0  0
   -3.4252   -1.0038    1.7283 C   0  0  0  0  0  0  0  0  0  0  0  0
    2.4876    0.4855    0.2966 C   0  0  0  0  0  0  0  0  0  0  0  0
   -3.4387   -1.9842    0.7359 C   0  0  0  0  0  0  0  0  0  0  0  0
    2.5914   -0.8623   -0.0072 C   0  0  0  0  0  0  0  0  0  0  0  0
    3.2641    0.9796    1.3389 C   0  0  0  0  0  0  0  0  0  0  0  0
    1.7816   -1.4506   -1.1164 C   0  0  0  0  0  0  0  0  0  0  0  0
    4.1088    0.1226    2.0357 C   0  0  0  0  0  0  0  0  0  0  0  0
    4.1401   -1.2091    1.6543 C   0  0  0  0  0  0  0  0  0  0  0  0
   -2.8758    2.5359   -0.9483 H   0  0  0  0  0  0  0  0  0  0  0  0
   -0.5455    2.5055   -1.6526 H   0  0  0  0  0  0  0  0  0  0  0  0
   -1.6442    2.7116    1.9173 H   0  0  0  0  0  0  0  0  0  0  0  0
   -2.8643    3.7717    1.1719 H   0  0  0  0  0  0  0  0  0  0  0  0
   -0.0158    4.1218    0.7263 H   0  0  0  0  0  0  0  0  0  0  0  0
   -1.2097    4.5723   -0.5125 H   0  0  0  0  0  0  0  0  0  0  0  0
    0.0463    0.9938    0.8754 H   0  0  0  0  0  0  0  0  0  0  0  0
   -3.0424    1.0365    2.2114 H   0  0  0  0  0  0  0  0  0  0  0  0
   -3.0621   -2.4305   -1.3383 H   0  0  0  0  0  0  0  0  0  0  0  0
   -3.7266   -1.2382    2.7460 H   0  0  0  0  0  0  0  0  0  0  0  0
    3.2185    2.0293    1.6160 H   0  0  0  0  0  0  0  0  0  0  0  0
    4.7231    0.4856    2.8517 H   0  0  0  0  0  0  0  0  0  0  0  0
    4.7822   -1.9184    2.1660 H   0  0  0  0  0  0  0  0  0  0  0  0
  1 14  1  0  0  0  0
  2 20  1  0  0  0  0
  3 23  1  0  0  0  0
  4 23  1  0  0  0  0
  5 23  1  0  0  0  0
  6 16  2  0  0  0  0
  7 10  1  0  0  0  0
  7 16  1  0  0  0  0
  7 32  1  0  0  0  0
  8 21  1  0  0  0  0
  8 25  2  0  0  0  0
  9 10  1  0  0  0  0
  9 11  1  0  0  0  0
  9 13  1  0  0  0  0
  9 26  1  0  0  0  0
 10 12  1  0  0  0  0
 10 27  1  0  0  0  0
 11 12  1  0  0  0  0
 11 28  1  0  0  0  0
 11 29  1  0  0  0  0
 12 30  1  0  0  0  0
 12 31  1  0  0  0  0
 13 14  2  0  0  0  0
 13 15  1  0  0  0  0
 14 17  1  0  0  0  0
 15 18  2  0  0  0  0
 15 33  1  0  0  0  0
 16 19  1  0  0  0  0
 17 20  2  0  0  0  0
 17 34  1  0  0  0  0
 18 20  1  0  0  0  0
 18 35  1  0  0  0  0
 19 21  2  0  0  0  0
 19 22  1  0  0  0  0
 21 23  1  0  0  0  0
 22 24  2  0  0  0  0
 22 36  1  0  0  0  0
 24 25  1  0  0  0  0
 24 37  1  0  0  0  0
 25 38  1  0  0  0  0
M  END
> <PUBCHEM_COMPOUND_CID>
71766128

> <PUBCHEM_CONFORMER_RMSD>
0.8

> <PUBCHEM_CONFORMER_DIVERSEORDER>
1
18
19
12
11
7
10
14
13
3
8
17
9
16
15
2
5
4
6

> <PUBCHEM_MMFF94_PARTIAL_CHARGES>
30
1 -0.18
10 0.22
13 -0.11
14 0.18
15 -0.15
16 0.54
17 -0.15
18 -0.15
19 0.09
2 -0.18
20 0.18
21 0.17
22 -0.15
23 1.16
24 -0.15
25 0.16
3 -0.34
32 0.37
33 0.15
34 0.15
35 0.15
36 0.15
37 0.15
38 0.15
4 -0.34
5 -0.34
6 -0.57
7 -0.65
8 -0.62
9 0.11

> <PUBCHEM_EFFECTIVE_ROTOR_COUNT>
5.8

> <PUBCHEM_PHARMACOPHORE_FEATURES>
6
1 6 acceptor
1 7 donor
1 8 acceptor
4 9 10 11 12 rings
6 13 14 15 17 18 20 rings
6 8 19 21 22 24 25 rings

> <PUBCHEM_HEAVY_ATOM_COUNT>
25

> <PUBCHEM_ATOM_DEF_STEREO_COUNT>
2

> <PUBCHEM_ATOM_UDEF_STEREO_COUNT>
0

> <PUBCHEM_BOND_DEF_STEREO_COUNT>
0

> <PUBCHEM_BOND_UDEF_STEREO_COUNT>
0

> <PUBCHEM_ISOTOPIC_ATOM_COUNT>
0

> <PUBCHEM_COMPONENT_COUNT>
1

> <PUBCHEM_CACTVS_TAUTO_COUNT>
2

> <PUBCHEM_CONFORMER_ID>
0447107000000001

> <PUBCHEM_MMFF94_ENERGY>
66.7293

> <PUBCHEM_FEATURE_SELFOVERLAP>
30.447

> <PUBCHEM_SHAPE_FINGERPRINT>
10366900 7 17987502728791060216
11370993 144 17488467369069670010
11640471 11 13110108700166665453
12156800 1 13928186016003247019
12363563 72 18187645846815381859
12553582 1 18269003149014155925
12596599 1 18339098054730506011
12633257 1 18334868246425499395
128993 33 10663821883918654681
13140716 1 18410577288292590297
13224815 77 18202842158294314900
13692114 37 17980495469096245881
13965767 371 17274559649797542207
14081887 123 18339636724769254234
14178342 30 18264489481650894000
14223421 5 18130221562795058556
151778 21 10447115838892603971
15422964 175 18340496650647709991
17138139 8 15468597890088075823
18981168 100 14979959150850988076
1979834 28 17916041220674790611
20775530 9 17750234871173791203
21133410 52 17259888046284270234
21421861 104 18117301292067978905
21756936 100 14620214417474205330
21864079 5 12391212938319449026
23184049 29 18335708217031284001
23557571 272 18413388713660005881
23728640 28 18191863419033154417
35225 105 17752506273460424785
3797600 57 18118416269714466052
469060 322 17557671876261933989
49207404 50 18059560353215045064
6287921 2 17702399509463104279
81228 2 18266463109645377341
9709674 26 18128246792487772980

> <PUBCHEM_SHAPE_MULTIPOLES>
480.58
7.8
3.91
2.01
2.46
1.35
-0.55
-5.53
3.84
-2.69
0.57
0.26
-0.58
0.6

> <PUBCHEM_SHAPE_SELFOVERLAP>
1020.105

> <PUBCHEM_SHAPE_VOLUME>
271.6

> <PUBCHEM_COORDINATE_TYPE>
2
5
10

$$$$
