11158353
  -OEChem-07232421543D

 37 38  0     0  0  0  0  0  0999 V2000
    3.1777    3.4373   -0.6928 Cl  0  0  0  0  0  0  0  0  0  0  0  0
   -5.2478    0.1297   -1.8576 F   0  0  0  0  0  0  0  0  0  0  0  0
   -4.7319    1.4330   -0.2026 F   0  0  0  0  0  0  0  0  0  0  0  0
   -3.3049    1.1051   -1.8102 F   0  0  0  0  0  0  0  0  0  0  0  0
    5.8195   -1.0215   -1.2968 F   0  0  0  0  0  0  0  0  0  0  0  0
    5.4626   -2.0677    0.5692 F   0  0  0  0  0  0  0  0  0  0  0  0
    4.2522   -2.5243   -1.1787 F   0  0  0  0  0  0  0  0  0  0  0  0
   -2.4470    1.5063    1.7709 O   0  0  0  0  0  0  0  0  0  0  0  0
   -0.9450    1.1851    0.0337 N   0  0  0  0  0  0  0  0  0  0  0  0
    1.8223    0.1352    1.1161 N   0  0  0  0  0  0  0  0  0  0  0  0
    0.9327    2.3674    1.1243 C   0  0  0  0  0  0  0  0  0  0  0  0
   -0.2571    2.4488    0.1712 C   0  0  0  0  0  0  0  0  0  0  0  0
    1.9889    1.3923    0.6654 C   0  0  0  0  0  0  0  0  0  0  0  0
   -2.5813   -0.5234    0.6044 C   0  0  0  0  0  0  0  0  0  0  0  0
   -2.0082    0.7924    0.8532 C   0  0  0  0  0  0  0  0  0  0  0  0
   -3.6385   -0.6925   -0.2900 C   0  0  0  0  0  0  0  0  0  0  0  0
    3.0184    1.8130   -0.1488 C   0  0  0  0  0  0  0  0  0  0  0  0
    3.8312   -0.4499   -0.0954 C   0  0  0  0  0  0  0  0  0  0  0  0
    3.9580    0.8634   -0.5342 C   0  0  0  0  0  0  0  0  0  0  0  0
   -2.0554   -1.6254    1.2787 C   0  0  0  0  0  0  0  0  0  0  0  0
   -4.1694   -1.9635   -0.5099 C   0  0  0  0  0  0  0  0  0  0  0  0
    2.7553   -0.7600    0.7209 C   0  0  0  0  0  0  0  0  0  0  0  0
   -4.2217    0.4705   -1.0247 C   0  0  0  0  0  0  0  0  0  0  0  0
   -2.5865   -2.8964    1.0587 C   0  0  0  0  0  0  0  0  0  0  0  0
   -3.6435   -3.0654    0.1645 C   0  0  0  0  0  0  0  0  0  0  0  0
    4.8193   -1.4893   -0.4898 C   0  0  0  0  0  0  0  0  0  0  0  0
    1.3528    3.3645    1.2948 H   0  0  0  0  0  0  0  0  0  0  0  0
    0.5763    2.0406    2.1111 H   0  0  0  0  0  0  0  0  0  0  0  0
   -0.9672    3.1992    0.5354 H   0  0  0  0  0  0  0  0  0  0  0  0
    0.0623    2.7487   -0.8324 H   0  0  0  0  0  0  0  0  0  0  0  0
   -0.6263    0.5492   -0.6919 H   0  0  0  0  0  0  0  0  0  0  0  0
    4.7878    1.1487   -1.1761 H   0  0  0  0  0  0  0  0  0  0  0  0
   -1.2311   -1.5067    1.9775 H   0  0  0  0  0  0  0  0  0  0  0  0
   -4.9927   -2.1185   -1.2017 H   0  0  0  0  0  0  0  0  0  0  0  0
    2.6037   -1.7682    1.0939 H   0  0  0  0  0  0  0  0  0  0  0  0
   -2.1768   -3.7545    1.5835 H   0  0  0  0  0  0  0  0  0  0  0  0
   -4.0567   -4.0551   -0.0066 H   0  0  0  0  0  0  0  0  0  0  0  0
  1 17  1  0  0  0  0
  2 23  1  0  0  0  0
  3 23  1  0  0  0  0
  4 23  1  0  0  0  0
  5 26  1  0  0  0  0
  6 26  1  0  0  0  0
  7 26  1  0  0  0  0
  8 15  2  0  0  0  0
  9 12  1  0  0  0  0
  9 15  1  0  0  0  0
  9 31  1  0  0  0  0
 10 13  1  0  0  0  0
 10 22  2  0  0  0  0
 11 12  1  0  0  0  0
 11 13  1  0  0  0  0
 11 27  1  0  0  0  0
 11 28  1  0  0  0  0
 12 29  1  0  0  0  0
 12 30  1  0  0  0  0
 13 17  2  0  0  0  0
 14 15  1  0  0  0  0
 14 16  1  0  0  0  0
 14 20  2  0  0  0  0
 16 21  2  0  0  0  0
 16 23  1  0  0  0  0
 17 19  1  0  0  0  0
 18 19  2  0  0  0  0
 18 22  1  0  0  0  0
 18 26  1  0  0  0  0
 19 32  1  0  0  0  0
 20 24  1  0  0  0  0
 20 33  1  0  0  0  0
 21 25  1  0  0  0  0
 21 34  1  0  0  0  0
 22 35  1  0  0  0  0
 24 25  2  0  0  0  0
 24 36  1  0  0  0  0
 25 37  1  0  0  0  0
M  END
> <PUBCHEM_COMPOUND_CID>
11158353

> <PUBCHEM_CONFORMER_RMSD>
0.8

> <PUBCHEM_CONFORMER_DIVERSEORDER>
3
67
31
22
17
61
43
55
54
4
71
36
70
28
68
49
2
9
56
19
58
52
44
38
66
62
57
14
1
69
6
25
60
8
42
33
13
15
32
73
53
63
41
46
51
65
34
37
26
59
7
64
16
72
10
48
21
24
18
47
20
50
30
29
27
5
40
39
45
23
35
12
11

> <PUBCHEM_MMFF94_PARTIAL_CHARGES>
33
1 -0.18
10 -0.62
11 0.14
12 0.3
13 0.17
14 0.09
15 0.54
16 -0.14
17 0.18
18 -0.14
19 -0.15
2 -0.34
20 -0.15
21 -0.15
22 0.16
23 1.16
24 -0.15
25 -0.15
26 1.16
3 -0.34
31 0.37
32 0.15
33 0.15
34 0.15
35 0.15
36 0.15
37 0.15
4 -0.34
5 -0.34
6 -0.34
7 -0.34
8 -0.57
9 -0.73

> <PUBCHEM_EFFECTIVE_ROTOR_COUNT>
7

> <PUBCHEM_PHARMACOPHORE_FEATURES>
5
1 10 acceptor
1 8 acceptor
1 9 donor
6 10 13 17 18 19 22 rings
6 14 16 20 21 24 25 rings

> <PUBCHEM_HEAVY_ATOM_COUNT>
26

> <PUBCHEM_ATOM_DEF_STEREO_COUNT>
0

> <PUBCHEM_ATOM_UDEF_STEREO_COUNT>
0

> <PUBCHEM_BOND_DEF_STEREO_COUNT>
0

> <PUBCHEM_BOND_UDEF_STEREO_COUNT>
0

> <PUBCHEM_ISOTOPIC_ATOM_COUNT>
0

> <PUBCHEM_COMPONENT_COUNT>
1

> <PUBCHEM_CACTVS_TAUTO_COUNT>
4

> <PUBCHEM_CONFORMER_ID>
00AA435100000003

> <PUBCHEM_MMFF94_ENERGY>
52.5191

> <PUBCHEM_FEATURE_SELFOVERLAP>
25.372

> <PUBCHEM_SHAPE_FINGERPRINT>
10764073 3 17826270413125225739
11315621 136 18337960103292707660
11595378 159 12175621724668540038
12403814 3 8862944979182973777
12553582 1 18335705979611662888
12555020 224 18409724037447296999
12596602 18 14261340341607168670
12892183 10 11024114256291790208
13533116 47 18199750409338969377
14790565 3 18263355894681922253
14848178 5 18201716245734802322
14866123 147 18198910193429665881
14910302 57 18260817233210662037
15052358 14 18263629702830097941
15188451 53 15123498221141731029
15352361 1 18341898497866408642
20645477 70 18410572937527915392
21033650 10 17168136823764965573
221357 26 18336545040128070403
221490 88 18336837506131319720
22393880 68 18114174276397356082
23379529 103 18271257066452777902
23559900 14 18411130368300649072
23572383 38 18340758321546277082
2838139 119 16010743735208315124
3004659 81 18334573542927995498
312425 83 17676487297482909828
3459 39 11458995380991686334
3729539 64 18189888709161242059
4280585 95 18334287635824662416
44062 13 18408599284270719023
46194498 28 17678740274360181477
508706 21 18058746688403162206
7808743 9 8718242638975956242
9709674 26 18263641938759147491

> <PUBCHEM_SHAPE_MULTIPOLES>
477.46
12.24
3.62
1.37
3.8
0.37
0.13
5.85
4.81
1.5
-0.03
-0.8
-0.15
1.08

> <PUBCHEM_SHAPE_SELFOVERLAP>
1017.862

> <PUBCHEM_SHAPE_VOLUME>
269.1

> <PUBCHEM_COORDINATE_TYPE>
2
5
10

$$$$
