3083543
  -OEChem-07232422053D

 43 45  0     1  0  0  0  0  0999 V2000
    4.0812   -1.4580   -1.9068 Cl  0  0  0  0  0  0  0  0  0  0  0  0
   -3.4603    1.8486   -0.5559 O   0  0  0  0  0  0  0  0  0  0  0  0
    1.6562   -2.1933    0.4702 O   0  0  0  0  0  0  0  0  0  0  0  0
    0.3668   -0.2604    0.1081 N   0  0  0  0  0  0  0  0  0  0  0  0
    4.7251    0.5721   -0.2930 N   0  0  0  0  0  0  0  0  0  0  0  0
    4.3535    1.3468    0.7403 N   0  0  0  0  0  0  0  0  0  0  0  0
   -4.2989    0.7344   -0.1465 C   0  0  0  0  0  0  0  0  0  0  0  0
   -3.3331   -0.3933    0.0271 C   0  0  0  0  0  0  0  0  0  0  0  0
   -2.0752    1.5749   -0.2246 C   0  0  1  0  0  0  0  0  0  0  0  0
   -2.0339    0.0997   -0.0316 C   0  0  0  0  0  0  0  0  0  0  0  0
   -5.3156    0.4884   -1.2577 C   0  0  0  0  0  0  0  0  0  0  0  0
   -4.9892    1.1039    1.1661 C   0  0  0  0  0  0  0  0  0  0  0  0
   -0.9421   -0.7396    0.1186 C   0  0  0  0  0  0  0  0  0  0  0  0
   -3.5763   -1.7429    0.2301 C   0  0  0  0  0  0  0  0  0  0  0  0
   -1.2261    2.1202   -1.3615 C   0  0  0  0  0  0  0  0  0  0  0  0
   -1.1746   -2.1018    0.3182 C   0  0  0  0  0  0  0  0  0  0  0  0
   -2.4842   -2.6007    0.3734 C   0  0  0  0  0  0  0  0  0  0  0  0
    1.5540   -0.9864    0.2784 C   0  0  0  0  0  0  0  0  0  0  0  0
    2.8040   -0.1827    0.2440 C   0  0  0  0  0  0  0  0  0  0  0  0
    3.1515    0.8632    1.0649 C   0  0  0  0  0  0  0  0  0  0  0  0
    3.8052   -0.3771   -0.6292 C   0  0  0  0  0  0  0  0  0  0  0  0
    2.4042    1.4684    2.1815 C   0  0  0  0  0  0  0  0  0  0  0  0
    6.0077    0.8156   -0.9142 C   0  0  0  0  0  0  0  0  0  0  0  0
   -1.8505    2.0937    0.7140 H   0  0  0  0  0  0  0  0  0  0  0  0
   -5.9266    1.3819   -1.4300 H   0  0  0  0  0  0  0  0  0  0  0  0
   -5.9838   -0.3469   -1.0235 H   0  0  0  0  0  0  0  0  0  0  0  0
   -4.8143    0.2678   -2.2077 H   0  0  0  0  0  0  0  0  0  0  0  0
   -5.6092    1.9986    1.0393 H   0  0  0  0  0  0  0  0  0  0  0  0
   -4.2585    1.3424    1.9481 H   0  0  0  0  0  0  0  0  0  0  0  0
   -5.6246    0.2905    1.5326 H   0  0  0  0  0  0  0  0  0  0  0  0
   -4.5880   -2.1308    0.2801 H   0  0  0  0  0  0  0  0  0  0  0  0
   -0.1583    2.1387   -1.1395 H   0  0  0  0  0  0  0  0  0  0  0  0
   -1.3769    1.5412   -2.2800 H   0  0  0  0  0  0  0  0  0  0  0  0
   -1.5252    3.1496   -1.5916 H   0  0  0  0  0  0  0  0  0  0  0  0
   -0.3980   -2.8432    0.4421 H   0  0  0  0  0  0  0  0  0  0  0  0
   -2.6506   -3.6627    0.5321 H   0  0  0  0  0  0  0  0  0  0  0  0
    0.4741    0.7422    0.0125 H   0  0  0  0  0  0  0  0  0  0  0  0
    1.6533    2.1693    1.8024 H   0  0  0  0  0  0  0  0  0  0  0  0
    1.8904    0.7021    2.7711 H   0  0  0  0  0  0  0  0  0  0  0  0
    3.0663    2.0164    2.8605 H   0  0  0  0  0  0  0  0  0  0  0  0
    5.8420    1.0679   -1.9645 H   0  0  0  0  0  0  0  0  0  0  0  0
    6.5062    1.6483   -0.4107 H   0  0  0  0  0  0  0  0  0  0  0  0
    6.6158   -0.0875   -0.8199 H   0  0  0  0  0  0  0  0  0  0  0  0
  1 21  1  0  0  0  0
  2  7  1  0  0  0  0
  2  9  1  0  0  0  0
  3 18  2  0  0  0  0
  4 13  1  0  0  0  0
  4 18  1  0  0  0  0
  4 37  1  0  0  0  0
  5  6  1  0  0  0  0
  5 21  1  0  0  0  0
  5 23  1  0  0  0  0
  6 20  2  0  0  0  0
  7  8  1  0  0  0  0
  7 11  1  0  0  0  0
  7 12  1  0  0  0  0
  8 10  2  0  0  0  0
  8 14  1  0  0  0  0
  9 10  1  0  0  0  0
  9 15  1  0  0  0  0
  9 24  1  0  0  0  0
 10 13  1  0  0  0  0
 11 25  1  0  0  0  0
 11 26  1  0  0  0  0
 11 27  1  0  0  0  0
 12 28  1  0  0  0  0
 12 29  1  0  0  0  0
 12 30  1  0  0  0  0
 13 16  2  0  0  0  0
 14 17  2  0  0  0  0
 14 31  1  0  0  0  0
 15 32  1  0  0  0  0
 15 33  1  0  0  0  0
 15 34  1  0  0  0  0
 16 17  1  0  0  0  0
 16 35  1  0  0  0  0
 17 36  1  0  0  0  0
 18 19  1  0  0  0  0
 19 20  1  0  0  0  0
 19 21  2  0  0  0  0
 20 22  1  0  0  0  0
 22 38  1  0  0  0  0
 22 39  1  0  0  0  0
 22 40  1  0  0  0  0
 23 41  1  0  0  0  0
 23 42  1  0  0  0  0
 23 43  1  0  0  0  0
M  END
> <PUBCHEM_COMPOUND_CID>
3083543

> <PUBCHEM_CONFORMER_RMSD>
0.6

> <PUBCHEM_CONFORMER_DIVERSEORDER>
4
12
9
6
15
2
7
16
14
11
13
3
1
10
17
8
5

> <PUBCHEM_MMFF94_PARTIAL_CHARGES>
24
1 -0.12
10 -0.14
13 0.12
14 -0.15
16 -0.15
17 -0.15
18 0.72
19 -0.09
2 -0.56
20 0.11
21 -0.03
22 0.18
23 0.26
3 -0.57
31 0.15
35 0.15
36 0.15
37 0.37
4 -0.55
5 0.31
6 -0.71
7 0.42
8 -0.14
9 0.42

> <PUBCHEM_EFFECTIVE_ROTOR_COUNT>
3.6

> <PUBCHEM_PHARMACOPHORE_FEATURES>
8
1 2 acceptor
1 3 acceptor
1 4 donor
1 6 acceptor
3 7 11 12 hydrophobe
5 2 7 8 9 10 rings
5 5 6 19 20 21 rings
6 8 10 13 14 16 17 rings

> <PUBCHEM_HEAVY_ATOM_COUNT>
23

> <PUBCHEM_ATOM_DEF_STEREO_COUNT>
0

> <PUBCHEM_ATOM_UDEF_STEREO_COUNT>
1

> <PUBCHEM_BOND_DEF_STEREO_COUNT>
0

> <PUBCHEM_BOND_UDEF_STEREO_COUNT>
0

> <PUBCHEM_ISOTOPIC_ATOM_COUNT>
0

> <PUBCHEM_COMPONENT_COUNT>
1

> <PUBCHEM_CACTVS_TAUTO_COUNT>
2

> <PUBCHEM_CONFORMER_ID>
002F0D1700000004

> <PUBCHEM_MMFF94_ENERGY>
68.7651

> <PUBCHEM_FEATURE_SELFOVERLAP>
40.678

> <PUBCHEM_SHAPE_FINGERPRINT>
10366900 7 18272643554477477145
10411042 1 17686345673831820499
10498660 4 18333447651241932836
10646746 165 18410290333143344650
10670039 82 17895767171071642788
11370993 144 17988374693045582827
11595378 159 17167853136900806524
12011746 2 18411131442227095861
12173636 292 18335132047543039847
12236239 1 17168134620430379249
12390115 104 18197508333432112105
12403259 415 18201158879333610410
12403814 3 16805597067231416687
12596602 18 16153429454039241880
12969540 114 18189595208418125311
13224815 77 18335415789835084674
13402501 40 18342737446792307456
14251757 17 18272938189602988128
14341114 328 16008754614866406216
15961568 22 17971472047301693244
16988056 13 15303616547786115700
18186145 218 18272366434681825419
19784866 170 18259987076145952411
200 152 16486975089712286851
20645477 56 18408324384587952719
20645477 70 17346605136528521478
21033648 29 18130782416688375986
21792961 116 18201453476068510374
22122407 14 15357706245125279461
221357 26 17917711271104159656
22289505 5 17989209235688710568
23227448 37 18335701688775777605
23557571 272 18338804523326816798
23559900 14 18412827984537213142
34934 24 18040709252063325507
350125 39 18045214938522685866
3545911 37 18409732858766842966
474 4 17167868568976633998
5104073 3 18408039615218729506
633830 44 18059853914071451463
7808743 9 18260830427529458540
9709674 26 18343020029427702743

> <PUBCHEM_SHAPE_MULTIPOLES>
448.52
12.09
2.37
1.39
4.96
0.75
-0.02
-3.34
2.48
-1.05
-0.1
0.88
-0.44
1.43

> <PUBCHEM_SHAPE_SELFOVERLAP>
962.994

> <PUBCHEM_SHAPE_VOLUME>
252.1

> <PUBCHEM_COORDINATE_TYPE>
2
5
10

$$$$
