70652048
  -OEChem-07232422053D

 45 47  0     1  0  0  0  0  0999 V2000
    4.2634   -2.1711   -1.0170 F   0  0  0  0  0  0  0  0  0  0  0  0
    4.2860   -2.0662    1.1485 F   0  0  0  0  0  0  0  0  0  0  0  0
    1.6281   -1.8383    0.0587 O   0  0  0  0  0  0  0  0  0  0  0  0
    0.1551   -0.0059    0.0058 N   0  0  0  0  0  0  0  0  0  0  0  0
    3.8186    2.0788   -0.1331 N   0  0  0  0  0  0  0  0  0  0  0  0
    4.7189    1.0818   -0.0941 N   0  0  0  0  0  0  0  0  0  0  0  0
   -4.6540    0.4979   -0.1582 C   0  0  0  0  0  0  0  0  0  0  0  0
   -3.8849    1.7873   -0.5617 C   0  0  0  0  0  0  0  0  0  0  0  0
   -2.4071    1.6233   -0.1441 C   0  0  2  0  0  0  0  0  0  0  0  0
   -3.5273   -0.5033   -0.0783 C   0  0  0  0  0  0  0  0  0  0  0  0
   -2.2780    0.1306   -0.0646 C   0  0  0  0  0  0  0  0  0  0  0  0
   -5.3467    0.6497    1.2018 C   0  0  0  0  0  0  0  0  0  0  0  0
   -5.6924    0.1369   -1.2276 C   0  0  0  0  0  0  0  0  0  0  0  0
   -2.0665    2.3183    1.1677 C   0  0  0  0  0  0  0  0  0  0  0  0
   -1.1037   -0.6040    0.0238 C   0  0  0  0  0  0  0  0  0  0  0  0
   -3.6156   -1.8872    0.0039 C   0  0  0  0  0  0  0  0  0  0  0  0
   -1.1896   -1.9948    0.0992 C   0  0  0  0  0  0  0  0  0  0  0  0
   -2.4377   -2.6323    0.0902 C   0  0  0  0  0  0  0  0  0  0  0  0
    1.4094   -0.6320    0.0236 C   0  0  0  0  0  0  0  0  0  0  0  0
    2.5800    0.2823   -0.0327 C   0  0  0  0  0  0  0  0  0  0  0  0
    3.9565   -0.0131   -0.0329 C   0  0  0  0  0  0  0  0  0  0  0  0
    2.5232    1.6532   -0.0990 C   0  0  0  0  0  0  0  0  0  0  0  0
    4.5958   -1.3399    0.0247 C   0  0  0  0  0  0  0  0  0  0  0  0
    4.2683    3.4482   -0.2045 C   0  0  0  0  0  0  0  0  0  0  0  0
   -4.3411    2.6969   -0.1543 H   0  0  0  0  0  0  0  0  0  0  0  0
   -3.9089    1.8997   -1.6557 H   0  0  0  0  0  0  0  0  0  0  0  0
   -1.7693    2.0222   -0.9421 H   0  0  0  0  0  0  0  0  0  0  0  0
   -5.8604   -0.2754    1.4890 H   0  0  0  0  0  0  0  0  0  0  0  0
   -4.6399    0.8826    2.0041 H   0  0  0  0  0  0  0  0  0  0  0  0
   -6.0944    1.4501    1.1731 H   0  0  0  0  0  0  0  0  0  0  0  0
   -5.2229   -0.0332   -2.2036 H   0  0  0  0  0  0  0  0  0  0  0  0
   -6.2376   -0.7774   -0.9669 H   0  0  0  0  0  0  0  0  0  0  0  0
   -6.4280    0.9406   -1.3448 H   0  0  0  0  0  0  0  0  0  0  0  0
   -2.6448    1.9236    2.0083 H   0  0  0  0  0  0  0  0  0  0  0  0
   -2.2687    3.3922    1.0947 H   0  0  0  0  0  0  0  0  0  0  0  0
   -1.0087    2.1998    1.4227 H   0  0  0  0  0  0  0  0  0  0  0  0
   -4.5772   -2.3896    0.0066 H   0  0  0  0  0  0  0  0  0  0  0  0
   -0.3425   -2.6608    0.1776 H   0  0  0  0  0  0  0  0  0  0  0  0
   -2.4902   -3.7159    0.1554 H   0  0  0  0  0  0  0  0  0  0  0  0
    0.1373    1.0064   -0.0558 H   0  0  0  0  0  0  0  0  0  0  0  0
    1.7042    2.3589   -0.1245 H   0  0  0  0  0  0  0  0  0  0  0  0
    5.6867   -1.2500    0.0089 H   0  0  0  0  0  0  0  0  0  0  0  0
    4.8776    3.6565    0.6785 H   0  0  0  0  0  0  0  0  0  0  0  0
    4.8583    3.5692   -1.1165 H   0  0  0  0  0  0  0  0  0  0  0  0
    3.4040    4.1164   -0.2277 H   0  0  0  0  0  0  0  0  0  0  0  0
  1 23  1  0  0  0  0
  2 23  1  0  0  0  0
  3 19  2  0  0  0  0
  4 15  1  0  0  0  0
  4 19  1  0  0  0  0
  4 40  1  0  0  0  0
  5  6  1  0  0  0  0
  5 22  1  0  0  0  0
  5 24  1  0  0  0  0
  6 21  2  0  0  0  0
  7  8  1  0  0  0  0
  7 10  1  0  0  0  0
  7 12  1  0  0  0  0
  7 13  1  0  0  0  0
  8  9  1  0  0  0  0
  8 25  1  0  0  0  0
  8 26  1  0  0  0  0
  9 11  1  0  0  0  0
  9 14  1  0  0  0  0
  9 27  1  0  0  0  0
 10 11  2  0  0  0  0
 10 16  1  0  0  0  0
 11 15  1  0  0  0  0
 12 28  1  0  0  0  0
 12 29  1  0  0  0  0
 12 30  1  0  0  0  0
 13 31  1  0  0  0  0
 13 32  1  0  0  0  0
 13 33  1  0  0  0  0
 14 34  1  0  0  0  0
 14 35  1  0  0  0  0
 14 36  1  0  0  0  0
 15 17  2  0  0  0  0
 16 18  2  0  0  0  0
 16 37  1  0  0  0  0
 17 18  1  0  0  0  0
 17 38  1  0  0  0  0
 18 39  1  0  0  0  0
 19 20  1  0  0  0  0
 20 21  1  0  0  0  0
 20 22  2  0  0  0  0
 21 23  1  0  0  0  0
 22 41  1  0  0  0  0
 23 42  1  0  0  0  0
 24 43  1  0  0  0  0
 24 44  1  0  0  0  0
 24 45  1  0  0  0  0
M  END
> <PUBCHEM_COMPOUND_CID>
70652048

> <PUBCHEM_CONFORMER_RMSD>
0.8

> <PUBCHEM_CONFORMER_DIVERSEORDER>
1
7
15
16
2
9
11
12
6
8
10
17
3
13
14
4
5

> <PUBCHEM_MMFF94_PARTIAL_CHARGES>
25
1 -0.34
10 -0.14
11 -0.14
15 0.12
16 -0.15
17 -0.15
18 -0.15
19 0.72
2 -0.34
20 -0.09
21 0.11
22 -0.3
23 0.86
24 0.26
3 -0.57
37 0.15
38 0.15
39 0.15
4 -0.55
40 0.37
41 0.15
5 0.31
6 -0.71
7 0.14
9 0.14

> <PUBCHEM_EFFECTIVE_ROTOR_COUNT>
4.6

> <PUBCHEM_PHARMACOPHORE_FEATURES>
7
1 3 acceptor
1 4 donor
1 6 acceptor
3 7 12 13 hydrophobe
5 5 6 20 21 22 rings
5 7 8 9 10 11 rings
6 10 11 15 16 17 18 rings

> <PUBCHEM_HEAVY_ATOM_COUNT>
24

> <PUBCHEM_ATOM_DEF_STEREO_COUNT>
1

> <PUBCHEM_ATOM_UDEF_STEREO_COUNT>
0

> <PUBCHEM_BOND_DEF_STEREO_COUNT>
0

> <PUBCHEM_BOND_UDEF_STEREO_COUNT>
0

> <PUBCHEM_ISOTOPIC_ATOM_COUNT>
0

> <PUBCHEM_COMPONENT_COUNT>
1

> <PUBCHEM_CACTVS_TAUTO_COUNT>
2

> <PUBCHEM_CONFORMER_ID>
0436109000000001

> <PUBCHEM_MMFF94_ENERGY>
63.1304

> <PUBCHEM_FEATURE_SELFOVERLAP>
35.6

> <PUBCHEM_SHAPE_FINGERPRINT>
10498660 4 18339082699779252053
10616163 171 18339927137757809838
11405975 8 18408603669121001130
12107183 9 17977100167744312912
12403259 415 18113616751230528301
12403260 363 18341608166366258289
12633257 1 18341336599784076065
12788726 201 17489039166888473385
13167823 11 18409164428593738866
13533116 47 18343300349194938508
14341114 176 18409736148917520036
14790565 3 18269564845291353465
15196674 1 18410011078369307367
17349148 13 18059574629295927074
17492 89 18410576223257596218
17844677 252 18409173203058547497
1813 80 16660646266965590068
18681886 176 18272082795648609778
200 152 17917706899106598319
20645477 56 18261111889473379581
21033648 144 18336255829572128397
21033648 29 17240751874809213109
21033650 10 15625406565695311274
21065198 57 18409166627759334750
21267235 1 18338525152884029147
21315764 268 18260541208536946005
21623110 236 18339930406660549217
21859007 373 17533752967225955268
23227448 37 18337670918607029797
23402539 116 18272644611524605365
23559900 14 18343019991300238322
245318 6 16593664225167115124
2838139 119 18115573839468894293
3004659 81 18410011022925057674
335352 9 18337671919176427078
350125 39 18409451358210258588
351380 180 18341328920572461477
3545911 37 18410294735321500604
3680242 22 18338519629566448265
4073 2 18041001799666354642
4214541 1 18410011031056114830
474 4 17676773175069889812
5104073 3 18335984254563574483
543358 83 18409168797092307242
633830 44 18335132124620686630
67856867 119 18338508746773538496
77779 3 18409730698535508110
9709674 26 18411705404265966222
9981440 41 17830452040249896984

> <PUBCHEM_SHAPE_MULTIPOLES>
458.55
12.68
3.11
0.88
2.67
0.53
0.07
2.34
-0.89
2.37
0.13
-0.62
0.1
-0.38

> <PUBCHEM_SHAPE_SELFOVERLAP>
991.144

> <PUBCHEM_SHAPE_VOLUME>
257.1

> <PUBCHEM_COORDINATE_TYPE>
2
5
10

$$$$
