66553206
  -OEChem-07232422093D

 48 50  0     0  0  0  0  0  0999 V2000
    5.6434   -2.4697    0.0909 Cl  0  0  0  0  0  0  0  0  0  0  0  0
   -1.1516    0.1897    2.3424 F   0  0  0  0  0  0  0  0  0  0  0  0
   -3.5286   -0.8711   -2.4633 F   0  0  0  0  0  0  0  0  0  0  0  0
   -3.8966    1.2561   -2.2616 F   0  0  0  0  0  0  0  0  0  0  0  0
   -1.0160    1.5312   -1.3591 O   0  0  0  0  0  0  0  0  0  0  0  0
    0.0750   -0.4084   -0.6367 N   0  0  0  0  0  0  0  0  0  0  0  0
   -3.4846   -0.1674    1.8428 N   0  0  0  0  0  0  0  0  0  0  0  0
   -4.3181   -0.2116    0.7896 N   0  0  0  0  0  0  0  0  0  0  0  0
    0.0749   -1.6088    0.1762 C   0  0  0  0  0  0  0  0  0  0  0  0
   -1.0353   -2.6137    0.0786 C   0  0  0  0  0  0  0  0  0  0  0  0
    0.3342   -2.9567   -0.4298 C   0  0  0  0  0  0  0  0  0  0  0  0
    1.2401   -0.2124   -1.4897 C   0  0  0  0  0  0  0  0  0  0  0  0
   -0.9842    0.5054   -0.6816 C   0  0  0  0  0  0  0  0  0  0  0  0
    2.5088   -0.1115   -0.6933 C   0  0  0  0  0  0  0  0  0  0  0  0
    2.8214    1.0485    0.0159 C   0  0  0  0  0  0  0  0  0  0  0  0
   -2.1711    0.2218    0.1415 C   0  0  0  0  0  0  0  0  0  0  0  0
    1.9029    2.2260    0.0055 C   0  0  0  0  0  0  0  0  0  0  0  0
    3.3813   -1.1997   -0.6697 C   0  0  0  0  0  0  0  0  0  0  0  0
   -3.5101    0.0270   -0.2469 C   0  0  0  0  0  0  0  0  0  0  0  0
    4.0064    1.1202    0.7482 C   0  0  0  0  0  0  0  0  0  0  0  0
   -2.1872    0.0893    1.5085 C   0  0  0  0  0  0  0  0  0  0  0  0
    4.5661   -1.1280    0.0630 C   0  0  0  0  0  0  0  0  0  0  0  0
    1.3611    2.5602    1.4074 C   0  0  0  0  0  0  0  0  0  0  0  0
    2.5563    3.4742   -0.6155 C   0  0  0  0  0  0  0  0  0  0  0  0
    4.8787    0.0319    0.7720 C   0  0  0  0  0  0  0  0  0  0  0  0
   -4.0696    0.0595   -1.6098 C   0  0  0  0  0  0  0  0  0  0  0  0
   -3.9977   -0.3819    3.1743 C   0  0  0  0  0  0  0  0  0  0  0  0
    0.4952   -1.4363    1.1626 H   0  0  0  0  0  0  0  0  0  0  0  0
   -1.8071   -2.5027   -0.6727 H   0  0  0  0  0  0  0  0  0  0  0  0
   -1.3665   -3.0919    0.9924 H   0  0  0  0  0  0  0  0  0  0  0  0
    0.9230   -3.6617    0.1447 H   0  0  0  0  0  0  0  0  0  0  0  0
    0.4445   -3.0579   -1.5019 H   0  0  0  0  0  0  0  0  0  0  0  0
    1.1225    0.6589   -2.1441 H   0  0  0  0  0  0  0  0  0  0  0  0
    1.2881   -1.0566   -2.1884 H   0  0  0  0  0  0  0  0  0  0  0  0
    1.0388    2.0631   -0.6187 H   0  0  0  0  0  0  0  0  0  0  0  0
    3.1433   -2.1041   -1.2247 H   0  0  0  0  0  0  0  0  0  0  0  0
    4.2718    2.0122    1.3087 H   0  0  0  0  0  0  0  0  0  0  0  0
    0.6111    3.3565    1.3494 H   0  0  0  0  0  0  0  0  0  0  0  0
    0.8869    1.6838    1.8610 H   0  0  0  0  0  0  0  0  0  0  0  0
    2.1533    2.8999    2.0833 H   0  0  0  0  0  0  0  0  0  0  0  0
    2.9227    3.2599   -1.6257 H   0  0  0  0  0  0  0  0  0  0  0  0
    1.8314    4.2926   -0.6878 H   0  0  0  0  0  0  0  0  0  0  0  0
    3.4028    3.8342   -0.0208 H   0  0  0  0  0  0  0  0  0  0  0  0
    5.7985    0.1019    1.3470 H   0  0  0  0  0  0  0  0  0  0  0  0
   -5.1479   -0.1285   -1.5953 H   0  0  0  0  0  0  0  0  0  0  0  0
   -4.7492    0.3841    3.3810 H   0  0  0  0  0  0  0  0  0  0  0  0
   -4.4429   -1.3791    3.2146 H   0  0  0  0  0  0  0  0  0  0  0  0
   -3.1808   -0.3083    3.8963 H   0  0  0  0  0  0  0  0  0  0  0  0
  1 22  1  0  0  0  0
  2 21  1  0  0  0  0
  3 26  1  0  0  0  0
  4 26  1  0  0  0  0
  5 13  2  0  0  0  0
  6  9  1  0  0  0  0
  6 12  1  0  0  0  0
  6 13  1  0  0  0  0
  7  8  1  0  0  0  0
  7 21  1  0  0  0  0
  7 27  1  0  0  0  0
  8 19  2  0  0  0  0
  9 10  1  0  0  0  0
  9 11  1  0  0  0  0
  9 28  1  0  0  0  0
 10 11  1  0  0  0  0
 10 29  1  0  0  0  0
 10 30  1  0  0  0  0
 11 31  1  0  0  0  0
 11 32  1  0  0  0  0
 12 14  1  0  0  0  0
 12 33  1  0  0  0  0
 12 34  1  0  0  0  0
 13 16  1  0  0  0  0
 14 15  2  0  0  0  0
 14 18  1  0  0  0  0
 15 17  1  0  0  0  0
 15 20  1  0  0  0  0
 16 19  1  0  0  0  0
 16 21  2  0  0  0  0
 17 23  1  0  0  0  0
 17 24  1  0  0  0  0
 17 35  1  0  0  0  0
 18 22  2  0  0  0  0
 18 36  1  0  0  0  0
 19 26  1  0  0  0  0
 20 25  2  0  0  0  0
 20 37  1  0  0  0  0
 22 25  1  0  0  0  0
 23 38  1  0  0  0  0
 23 39  1  0  0  0  0
 23 40  1  0  0  0  0
 24 41  1  0  0  0  0
 24 42  1  0  0  0  0
 24 43  1  0  0  0  0
 25 44  1  0  0  0  0
 26 45  1  0  0  0  0
 27 46  1  0  0  0  0
 27 47  1  0  0  0  0
 27 48  1  0  0  0  0
M  END
> <PUBCHEM_COMPOUND_CID>
66553206

> <PUBCHEM_CONFORMER_RMSD>
0.8

> <PUBCHEM_CONFORMER_DIVERSEORDER>
1
168
147
62
83
60
200
32
76
43
44
128
195
163
78
199
55
28
36
39
13
110
20
82
152
33
118
171
94
59
77
35
137
149
177
180
25
8
122
88
31
68
125
131
112
196
109
29
158
102
52
187
108
151
184
143
139
42
181
167
66
174
67
140
133
3
40
162
104
105
172
69
157
57
111
192
115
107
27
141
91
101
155
159
113
188
160
142
81
80
186
134
12
121
138
48
79
15
63
130
24
127
92
161
96
194
146
86
34
30
51
18
148
53
156
93
183
46
176
185
16
182
56
41
50
95
114
166
38
6
150
49
61
175
132
170
11
65
71
197
23
17
58
54
64
145
123
164
74
84
129
126
72
97
136
116
5
7
120
45
178
73
19
99
154
191
198
117
90
190
173
10
179
124
193
144
85
153
47
89
75
9
135
87
189
201
21
119
106
169
70
37
98
100
14
26
2
22
103
165
4

> <PUBCHEM_MMFF94_PARTIAL_CHARGES>
33
1 -0.18
10 -0.2
11 -0.2
12 0.44
13 0.72
14 -0.14
15 -0.14
16 -0.09
17 0.14
18 -0.15
19 0.11
2 -0.14
20 -0.15
21 -0.01
22 0.18
25 -0.15
26 0.86
27 0.26
28 0.1
29 0.1
3 -0.34
30 0.1
31 0.1
32 0.1
36 0.15
37 0.15
4 -0.34
44 0.15
5 -0.57
6 -0.51
7 0.31
8 -0.71
9 0.05

> <PUBCHEM_EFFECTIVE_ROTOR_COUNT>
7.6

> <PUBCHEM_PHARMACOPHORE_FEATURES>
5
1 5 acceptor
1 8 acceptor
3 17 23 24 hydrophobe
5 7 8 16 19 21 rings
6 14 15 18 20 22 25 rings

> <PUBCHEM_HEAVY_ATOM_COUNT>
27

> <PUBCHEM_ATOM_DEF_STEREO_COUNT>
0

> <PUBCHEM_ATOM_UDEF_STEREO_COUNT>
0

> <PUBCHEM_BOND_DEF_STEREO_COUNT>
0

> <PUBCHEM_BOND_UDEF_STEREO_COUNT>
0

> <PUBCHEM_ISOTOPIC_ATOM_COUNT>
0

> <PUBCHEM_COMPONENT_COUNT>
1

> <PUBCHEM_CACTVS_TAUTO_COUNT>
1

> <PUBCHEM_CONFORMER_ID>
03F7857600000001

> <PUBCHEM_MMFF94_ENERGY>
60.3353

> <PUBCHEM_FEATURE_SELFOVERLAP>
25.372

> <PUBCHEM_SHAPE_FINGERPRINT>
10062212 137 17275389823989126465
11545043 162 17385726902109810992
11582403 64 17027640193423293207
11725454 13 17387663142576870415
11796584 16 17022897901025494106
12166972 35 18201992253007161532
12236239 1 17632856413050700215
12403260 363 18413389843268137421
12422481 6 18045526320169523971
12507560 14 18342462517424786154
12553582 1 18341345430901676492
12596599 1 17703796911532452965
12633257 1 18341901830797706824
13140716 1 18265342870230922842
13583140 156 17822006540416644795
13965767 371 16481667601140585881
14251764 3 18113893883973846035
14341114 328 17275109414000924410
16992727 255 16629392538469988361
17349148 13 17917993888663230374
17980427 23 17418375800875653960
18219364 16 18408324401577833389
192875 21 18060418027597175552
21033648 144 18199742721163347964
21033648 29 18188196671886663860
23402539 116 17846493686838308222
23493267 7 16732980895232015821
23557571 272 17240491273795501735
23559900 14 18341044207828823502
392239 28 17914921905158496603
4340502 62 18198929010172000099
474 4 18059867180850778443
5252454 2 17904783398079185468
633830 44 17916887771169882015
7097593 13 18339924943599084354
9849439 229 14618295580763574931

> <PUBCHEM_SHAPE_MULTIPOLES>
514.88
9.9
2.89
2.1
2.51
0.48
0.66
-2.34
1.43
3.3
-0.23
-3.67
0.28
0.3

> <PUBCHEM_SHAPE_SELFOVERLAP>
1085.868

> <PUBCHEM_SHAPE_VOLUME>
293.4

> <PUBCHEM_COORDINATE_TYPE>
2
5
10

$$$$
