71657865
  -OEChem-07232421533D

 50 51  0     0  0  0  0  0  0999 V2000
   -1.1742   -2.1980    0.7755 S   0  0  0  0  0  0  0  0  0  0  0  0
    0.0369    3.9511    0.2986 O   0  0  0  0  0  0  0  0  0  0  0  0
    4.2812   -0.6416   -0.3136 O   0  0  0  0  0  0  0  0  0  0  0  0
   -3.9081    0.4474    0.3927 O   0  0  0  0  0  0  0  0  0  0  0  0
   -1.6122    0.7244    0.2244 N   0  0  0  0  0  0  0  0  0  0  0  0
   -1.6099    2.1675    0.3337 C   0  0  0  0  0  0  0  0  0  0  0  0
   -0.1828    2.7401    0.2594 C   0  0  0  0  0  0  0  0  0  0  0  0
   -2.4354    2.7755   -0.8051 C   0  0  0  0  0  0  0  0  0  0  0  0
   -2.2213    2.5556    1.6848 C   0  0  0  0  0  0  0  0  0  0  0  0
    0.9878    1.8531    0.0873 C   0  0  0  0  0  0  0  0  0  0  0  0
    1.4588    1.5185   -1.1824 C   0  0  0  0  0  0  0  0  0  0  0  0
    1.6239    1.3496    1.2222 C   0  0  0  0  0  0  0  0  0  0  0  0
   -2.7795   -0.0197    0.2642 C   0  0  0  0  0  0  0  0  0  0  0  0
    2.5656    0.6803   -1.3172 C   0  0  0  0  0  0  0  0  0  0  0  0
    3.2014    0.1766   -0.1823 C   0  0  0  0  0  0  0  0  0  0  0  0
    2.7305    0.5113    1.0874 C   0  0  0  0  0  0  0  0  0  0  0  0
    0.7967    2.0439   -2.4141 C   0  0  0  0  0  0  0  0  0  0  0  0
   -2.6103   -1.4923    0.1657 C   0  0  0  0  0  0  0  0  0  0  0  0
    4.1735   -1.9523    0.2401 C   0  0  0  0  0  0  0  0  0  0  0  0
   -3.4646   -2.4342   -0.3641 C   0  0  0  0  0  0  0  0  0  0  0  0
    5.2318   -2.1289    1.3184 C   0  0  0  0  0  0  0  0  0  0  0  0
    4.3207   -2.9793   -0.8721 C   0  0  0  0  0  0  0  0  0  0  0  0
   -2.9331   -3.7527   -0.2681 C   0  0  0  0  0  0  0  0  0  0  0  0
   -4.7844   -2.1275   -0.9666 C   0  0  0  0  0  0  0  0  0  0  0  0
   -1.6930   -3.7683    0.3313 C   0  0  0  0  0  0  0  0  0  0  0  0
   -3.5043    2.5564   -0.7228 H   0  0  0  0  0  0  0  0  0  0  0  0
   -2.1030    2.4056   -1.7808 H   0  0  0  0  0  0  0  0  0  0  0  0
   -2.3411    3.8677   -0.8252 H   0  0  0  0  0  0  0  0  0  0  0  0
   -3.2833    2.3088    1.7704 H   0  0  0  0  0  0  0  0  0  0  0  0
   -1.6974    2.0568    2.5092 H   0  0  0  0  0  0  0  0  0  0  0  0
   -2.1351    3.6349    1.8590 H   0  0  0  0  0  0  0  0  0  0  0  0
   -0.7396    0.2171    0.1197 H   0  0  0  0  0  0  0  0  0  0  0  0
    1.2662    1.6048    2.2164 H   0  0  0  0  0  0  0  0  0  0  0  0
    2.9388    0.4111   -2.3024 H   0  0  0  0  0  0  0  0  0  0  0  0
    3.2184    0.1361    1.9822 H   0  0  0  0  0  0  0  0  0  0  0  0
   -0.1092    1.4691   -2.6280 H   0  0  0  0  0  0  0  0  0  0  0  0
    0.5437    3.1042   -2.3167 H   0  0  0  0  0  0  0  0  0  0  0  0
    1.4565    1.9631   -3.2854 H   0  0  0  0  0  0  0  0  0  0  0  0
    3.1876   -2.1100    0.6986 H   0  0  0  0  0  0  0  0  0  0  0  0
    5.1075   -1.3867    2.1133 H   0  0  0  0  0  0  0  0  0  0  0  0
    5.1818   -3.1268    1.7648 H   0  0  0  0  0  0  0  0  0  0  0  0
    6.2361   -1.9805    0.9062 H   0  0  0  0  0  0  0  0  0  0  0  0
    3.5442   -2.8345   -1.6310 H   0  0  0  0  0  0  0  0  0  0  0  0
    4.2447   -4.0002   -0.4857 H   0  0  0  0  0  0  0  0  0  0  0  0
    5.2838   -2.8677   -1.3823 H   0  0  0  0  0  0  0  0  0  0  0  0
   -3.4295   -4.6488   -0.6184 H   0  0  0  0  0  0  0  0  0  0  0  0
   -5.4923   -1.8025   -0.1972 H   0  0  0  0  0  0  0  0  0  0  0  0
   -4.6972   -1.3360   -1.7183 H   0  0  0  0  0  0  0  0  0  0  0  0
   -5.2112   -3.0058   -1.4625 H   0  0  0  0  0  0  0  0  0  0  0  0
   -1.0667   -4.6266    0.5296 H   0  0  0  0  0  0  0  0  0  0  0  0
  1 18  1  0  0  0  0
  1 25  1  0  0  0  0
  2  7  2  0  0  0  0
  3 15  1  0  0  0  0
  3 19  1  0  0  0  0
  4 13  2  0  0  0  0
  5  6  1  0  0  0  0
  5 13  1  0  0  0  0
  5 32  1  0  0  0  0
  6  7  1  0  0  0  0
  6  8  1  0  0  0  0
  6  9  1  0  0  0  0
  7 10  1  0  0  0  0
  8 26  1  0  0  0  0
  8 27  1  0  0  0  0
  8 28  1  0  0  0  0
  9 29  1  0  0  0  0
  9 30  1  0  0  0  0
  9 31  1  0  0  0  0
 10 11  2  0  0  0  0
 10 12  1  0  0  0  0
 11 14  1  0  0  0  0
 11 17  1  0  0  0  0
 12 16  2  0  0  0  0
 12 33  1  0  0  0  0
 13 18  1  0  0  0  0
 14 15  2  0  0  0  0
 14 34  1  0  0  0  0
 15 16  1  0  0  0  0
 16 35  1  0  0  0  0
 17 36  1  0  0  0  0
 17 37  1  0  0  0  0
 17 38  1  0  0  0  0
 18 20  2  0  0  0  0
 19 21  1  0  0  0  0
 19 22  1  0  0  0  0
 19 39  1  0  0  0  0
 20 23  1  0  0  0  0
 20 24  1  0  0  0  0
 21 40  1  0  0  0  0
 21 41  1  0  0  0  0
 21 42  1  0  0  0  0
 22 43  1  0  0  0  0
 22 44  1  0  0  0  0
 22 45  1  0  0  0  0
 23 25  2  0  0  0  0
 23 46  1  0  0  0  0
 24 47  1  0  0  0  0
 24 48  1  0  0  0  0
 24 49  1  0  0  0  0
 25 50  1  0  0  0  0
M  END
> <PUBCHEM_COMPOUND_CID>
71657865

> <PUBCHEM_CONFORMER_RMSD>
1

> <PUBCHEM_CONFORMER_DIVERSEORDER>
1
97
58
157
202
95
173
196
47
8
14
200
134
116
207
78
225
143
147
212
197
76
169
49
26
215
210
203
124
226
117
6
17
77
10
204
34
193
113
228
100
62
211
111
162
188
128
24
33
163
84
217
122
216
72
227
93
170
126
5
186
138
96
132
50
64
166
70
131
118
148
46
73
81
79
104
198
160
38
152
54
146
115
221
149
209
120
190
220
108
102
141
41
191
20
208
185
133
12
80
23
222
158
92
213
164
85
60
205
11
214
37
175
22
189
30
145
75
86
127
99
55
194
91
151
181
48
112
103
172
89
136
19
154
183
71
57
52
199
176
42
156
90
36
180
67
25
74
135
27
192
39
2
150
201
177
182
4
179
56
159
139
114
94
87
125
105
82
61
223
161
43
45
15
144
119
206
174
9
69
68
44
129
165
168
63
51
40
29
130
137
155
18
123
88
178
167
16
66
13
121
7
110
98
187
106
32
3
140
107
59
142
224
195
83
65
35
109
153
21
184
218
219
171
31
28
53
101

> <PUBCHEM_MMFF94_PARTIAL_CHARGES>
27
1 -0.08
10 0.09
11 -0.14
12 -0.15
13 0.71
14 -0.15
15 0.08
16 -0.15
17 0.14
18 -0.05
19 0.28
2 -0.57
20 -0.18
23 -0.15
24 0.18
25 -0.11
3 -0.36
32 0.37
33 0.15
34 0.15
35 0.15
4 -0.57
46 0.15
5 -0.73
50 0.15
6 0.36
7 0.42

> <PUBCHEM_EFFECTIVE_ROTOR_COUNT>
7

> <PUBCHEM_PHARMACOPHORE_FEATURES>
8
1 2 acceptor
1 3 acceptor
1 4 acceptor
1 5 donor
3 19 21 22 hydrophobe
3 6 8 9 hydrophobe
5 1 18 20 23 25 rings
6 10 11 12 14 15 16 rings

> <PUBCHEM_HEAVY_ATOM_COUNT>
25

> <PUBCHEM_ATOM_DEF_STEREO_COUNT>
0

> <PUBCHEM_ATOM_UDEF_STEREO_COUNT>
0

> <PUBCHEM_BOND_DEF_STEREO_COUNT>
0

> <PUBCHEM_BOND_UDEF_STEREO_COUNT>
0

> <PUBCHEM_ISOTOPIC_ATOM_COUNT>
0

> <PUBCHEM_COMPONENT_COUNT>
1

> <PUBCHEM_CACTVS_TAUTO_COUNT>
2

> <PUBCHEM_CONFORMER_ID>
0445698900000001

> <PUBCHEM_MMFF94_ENERGY>
76.9713

> <PUBCHEM_FEATURE_SELFOVERLAP>
40.596

> <PUBCHEM_SHAPE_FINGERPRINT>
10483366 6 18264750096889476213
114674 6 16899345031639861987
12156800 1 16120428617912465919
12553582 1 18194136328299524923
12633257 1 17988659470752034569
12969540 37 18265326386584225636
12990986 174 18411132524711984714
13122387 1 17906175048871203139
1361 2 15960059808689264922
13631057 29 18341621464307803884
138480 1 15745007768241112835
14251757 5 18194984971378704382
14863182 85 17183344457062254785
14866123 147 18341615872265678859
15927050 60 17333650471402797053
19930381 70 17690278639555802931
20602899 9 17685472279125360884
20775530 9 18337394941030715326
23184049 29 18268998750820263569
23559900 14 18051969513519645569
238 59 16748188575299614187
463206 1 18408608092890129147
49207404 50 9869821700025348207
5309563 4 17690573295518249666
56633871 153 18342187665372568627
602551 16 18195526992135450426
9709674 26 17545036465309771267
9795274 37 17974293419248603514

> <PUBCHEM_SHAPE_MULTIPOLES>
495.75
8.75
5.37
1.45
4.82
1.2
0.37
9.28
0.04
-2.42
-0.02
0.61
-0.73
-1.07

> <PUBCHEM_SHAPE_SELFOVERLAP>
1028.133

> <PUBCHEM_SHAPE_VOLUME>
287.4

> <PUBCHEM_COORDINATE_TYPE>
2
5
10

$$$$
