11674113
  -OEChem-07232422073D

 47 48  0     1  0  0  0  0  0999 V2000
   -2.0253   -0.1573    2.1268 F   0  0  0  0  0  0  0  0  0  0  0  0
   -1.0455   -1.8592   -1.5290 O   0  0  0  0  0  0  0  0  0  0  0  0
   -0.0285   -0.6906    0.2181 N   0  0  0  0  0  0  0  0  0  0  0  0
   -3.9667    0.5020    0.8556 N   0  0  0  0  0  0  0  0  0  0  0  0
   -4.4243    0.4893   -0.4081 N   0  0  0  0  0  0  0  0  0  0  0  0
    2.1193    1.0081    1.1289 C   0  0  1  0  0  0  0  0  0  0  0  0
    2.8362    2.1142    0.3209 C   0  0  0  0  0  0  0  0  0  0  0  0
    2.3747    2.2687   -1.1445 C   0  0  0  0  0  0  0  0  0  0  0  0
    2.3536   -0.3868    0.5756 C   0  0  0  0  0  0  0  0  0  0  0  0
    2.5423    1.0737    2.6027 C   0  0  0  0  0  0  0  0  0  0  0  0
    0.8717    2.5272   -1.2598 C   0  0  0  0  0  0  0  0  0  0  0  0
    3.1452    3.4141   -1.8082 C   0  0  0  0  0  0  0  0  0  0  0  0
    1.2868   -1.1576    0.1531 C   0  0  0  0  0  0  0  0  0  0  0  0
    3.6559   -0.8487    0.5117 C   0  0  0  0  0  0  0  0  0  0  0  0
    1.5297   -2.4353   -0.3510 C   0  0  0  0  0  0  0  0  0  0  0  0
    3.8989   -2.1264    0.0075 C   0  0  0  0  0  0  0  0  0  0  0  0
    2.8357   -2.9196   -0.4238 C   0  0  0  0  0  0  0  0  0  0  0  0
   -1.0963   -1.0552   -0.6030 C   0  0  0  0  0  0  0  0  0  0  0  0
   -2.3757   -0.4150   -0.2523 C   0  0  0  0  0  0  0  0  0  0  0  0
   -3.4260   -0.0830   -1.0863 C   0  0  0  0  0  0  0  0  0  0  0  0
   -2.7224   -0.0389    0.9965 C   0  0  0  0  0  0  0  0  0  0  0  0
   -3.5571   -0.2782   -2.5412 C   0  0  0  0  0  0  0  0  0  0  0  0
   -4.7823    1.0543    1.9100 C   0  0  0  0  0  0  0  0  0  0  0  0
    1.0673    1.2904    1.1395 H   0  0  0  0  0  0  0  0  0  0  0  0
    3.9217    1.9525    0.3353 H   0  0  0  0  0  0  0  0  0  0  0  0
    2.6749    3.0726    0.8345 H   0  0  0  0  0  0  0  0  0  0  0  0
    2.6082    1.3488   -1.6941 H   0  0  0  0  0  0  0  0  0  0  0  0
    2.2846    2.0476    3.0338 H   0  0  0  0  0  0  0  0  0  0  0  0
    2.0303    0.3045    3.1922 H   0  0  0  0  0  0  0  0  0  0  0  0
    3.6209    0.9341    2.7324 H   0  0  0  0  0  0  0  0  0  0  0  0
    0.5960    2.7422   -2.2982 H   0  0  0  0  0  0  0  0  0  0  0  0
    0.2814    1.6651   -0.9507 H   0  0  0  0  0  0  0  0  0  0  0  0
    0.5695    3.3849   -0.6493 H   0  0  0  0  0  0  0  0  0  0  0  0
    2.8666    3.5109   -2.8629 H   0  0  0  0  0  0  0  0  0  0  0  0
    4.2244    3.2329   -1.7649 H   0  0  0  0  0  0  0  0  0  0  0  0
    2.9410    4.3705   -1.3148 H   0  0  0  0  0  0  0  0  0  0  0  0
    4.4988   -0.2506    0.8433 H   0  0  0  0  0  0  0  0  0  0  0  0
    0.7335   -3.1051   -0.6581 H   0  0  0  0  0  0  0  0  0  0  0  0
   -0.2132    0.0635    0.8683 H   0  0  0  0  0  0  0  0  0  0  0  0
    4.9155   -2.5048   -0.0468 H   0  0  0  0  0  0  0  0  0  0  0  0
    3.0247   -3.9183   -0.8070 H   0  0  0  0  0  0  0  0  0  0  0  0
   -4.4266    0.2507   -2.9460 H   0  0  0  0  0  0  0  0  0  0  0  0
   -2.6705    0.0955   -3.0640 H   0  0  0  0  0  0  0  0  0  0  0  0
   -3.6720   -1.3414   -2.7759 H   0  0  0  0  0  0  0  0  0  0  0  0
   -4.9829    2.1028    1.6762 H   0  0  0  0  0  0  0  0  0  0  0  0
   -5.7141    0.4854    1.9580 H   0  0  0  0  0  0  0  0  0  0  0  0
   -4.2494    0.9792    2.8610 H   0  0  0  0  0  0  0  0  0  0  0  0
  1 21  1  0  0  0  0
  2 18  2  0  0  0  0
  3 13  1  0  0  0  0
  3 18  1  0  0  0  0
  3 39  1  0  0  0  0
  4  5  1  0  0  0  0
  4 21  1  0  0  0  0
  4 23  1  0  0  0  0
  5 20  2  0  0  0  0
  6  7  1  0  0  0  0
  6  9  1  0  0  0  0
  6 10  1  0  0  0  0
  6 24  1  0  0  0  0
  7  8  1  0  0  0  0
  7 25  1  0  0  0  0
  7 26  1  0  0  0  0
  8 11  1  0  0  0  0
  8 12  1  0  0  0  0
  8 27  1  0  0  0  0
  9 13  1  0  0  0  0
  9 14  2  0  0  0  0
 10 28  1  0  0  0  0
 10 29  1  0  0  0  0
 10 30  1  0  0  0  0
 11 31  1  0  0  0  0
 11 32  1  0  0  0  0
 11 33  1  0  0  0  0
 12 34  1  0  0  0  0
 12 35  1  0  0  0  0
 12 36  1  0  0  0  0
 13 15  2  0  0  0  0
 14 16  1  0  0  0  0
 14 37  1  0  0  0  0
 15 17  1  0  0  0  0
 15 38  1  0  0  0  0
 16 17  2  0  0  0  0
 16 40  1  0  0  0  0
 17 41  1  0  0  0  0
 18 19  1  0  0  0  0
 19 20  1  0  0  0  0
 19 21  2  0  0  0  0
 20 22  1  0  0  0  0
 22 42  1  0  0  0  0
 22 43  1  0  0  0  0
 22 44  1  0  0  0  0
 23 45  1  0  0  0  0
 23 46  1  0  0  0  0
 23 47  1  0  0  0  0
M  END
> <PUBCHEM_COMPOUND_CID>
11674113

> <PUBCHEM_CONFORMER_RMSD>
0.8

> <PUBCHEM_CONFORMER_DIVERSEORDER>
2
29
3
43
21
17
10
46
40
38
35
32
36
26
33
44
41
30
19
28
45
20
42
18
7
37
39
1
24
34
13
15
4
5
25
16
31
11
8
22
27
14
12
9
23
6

> <PUBCHEM_MMFF94_PARTIAL_CHARGES>
23
1 -0.14
13 0.12
14 -0.15
15 -0.15
16 -0.15
17 -0.15
18 0.72
19 -0.09
2 -0.57
20 0.11
21 -0.01
22 0.18
23 0.26
3 -0.55
37 0.15
38 0.15
39 0.37
4 0.31
40 0.15
41 0.15
5 -0.71
6 0.14
9 -0.14

> <PUBCHEM_EFFECTIVE_ROTOR_COUNT>
6

> <PUBCHEM_PHARMACOPHORE_FEATURES>
7
1 10 hydrophobe
1 2 acceptor
1 3 donor
1 5 acceptor
3 8 11 12 hydrophobe
5 4 5 19 20 21 rings
6 9 13 14 15 16 17 rings

> <PUBCHEM_HEAVY_ATOM_COUNT>
23

> <PUBCHEM_ATOM_DEF_STEREO_COUNT>
0

> <PUBCHEM_ATOM_UDEF_STEREO_COUNT>
1

> <PUBCHEM_BOND_DEF_STEREO_COUNT>
0

> <PUBCHEM_BOND_UDEF_STEREO_COUNT>
0

> <PUBCHEM_ISOTOPIC_ATOM_COUNT>
0

> <PUBCHEM_COMPONENT_COUNT>
1

> <PUBCHEM_CACTVS_TAUTO_COUNT>
2

> <PUBCHEM_CONFORMER_ID>
00B2220100000002

> <PUBCHEM_MMFF94_ENERGY>
55.7921

> <PUBCHEM_FEATURE_SELFOVERLAP>
35.52

> <PUBCHEM_SHAPE_FINGERPRINT>
10366900 7 17022897922410711267
10369192 42 17099773752384950628
10382601 240 18262221305817986456
11582403 64 15192156267192254488
11640471 11 18059292166466130493
12633257 1 17531521083185839673
12670545 47 17458058279191612503
13134695 92 18188766142027598190
13583140 156 17240747485321065683
13965767 371 18196341858720824232
14713325 29 17032493635580710984
15342168 16 18410018771120146653
15806764 133 17822576006093676613
1601671 61 18409446995187987750
17357779 13 18192135023942650292
1813 80 18126019165193343038
18336668 15 18129096736930675298
18785283 64 18114759229747731644
20739085 24 18126578816453683370
21033648 29 18042392561378828517
21304253 335 17846493704276647114
21475661 188 17971757667064145277
21503847 285 18260833657102330745
22149856 69 18200308966137770775
2255824 54 18411699876869844502
23175994 123 18042128652312196583
23419403 2 17554569991579500154
23559900 14 18259706679353973091
25222932 49 16050926550853604007
312423 11 18131632300928473511
3472631 163 16487251054647000937
4409770 3 16898769390221780398
474 4 18337382837643797258
5081480 168 18263659397843625300
57724786 102 18334587819305030373
5895379 119 15482405157154930314
9971528 1 17917422069876993850
9981440 41 17411867933058253970

> <PUBCHEM_SHAPE_MULTIPOLES>
445.24
8.58
3.22
2.13
8.05
1.04
-0.4
1.05
-1.07
-5.11
1.73
1.22
1
-1.21

> <PUBCHEM_SHAPE_SELFOVERLAP>
933.237

> <PUBCHEM_SHAPE_VOLUME>
254.9

> <PUBCHEM_COORDINATE_TYPE>
2
5
10

$$$$
