56933411
  -OEChem-07232422093D

 42 43  0     1  0  0  0  0  0999 V2000
    0.6950    1.0440   -1.5047 Cl  0  0  0  0  0  0  0  0  0  0  0  0
    4.4535   -2.3474    0.5185 Cl  0  0  0  0  0  0  0  0  0  0  0  0
    5.6147    2.8431   -0.2817 Cl  0  0  0  0  0  0  0  0  0  0  0  0
   -4.4184   -1.8663   -0.3711 F   0  0  0  0  0  0  0  0  0  0  0  0
   -3.8493   -1.0069   -2.2787 F   0  0  0  0  0  0  0  0  0  0  0  0
   -0.1065   -0.0207    1.9246 O   0  0  0  0  0  0  0  0  0  0  0  0
   -1.3369   -1.4535   -1.1339 O   0  0  0  0  0  0  0  0  0  0  0  0
   -0.2179   -0.8535    0.7965 N   0  0  0  0  0  0  0  0  0  0  0  0
   -3.1878    2.2061    0.5989 N   0  0  0  0  0  0  0  0  0  0  0  0
   -4.1706    1.5168   -0.0051 N   0  0  0  0  0  0  0  0  0  0  0  0
    0.8373   -1.8470    0.7285 C   0  0  2  0  0  0  0  0  0  0  0  0
    1.6670   -1.6948   -0.5560 C   0  0  0  0  0  0  0  0  0  0  0  0
    0.2323   -3.2447    0.8172 C   0  0  0  0  0  0  0  0  0  0  0  0
    2.6569   -0.5563   -0.4873 C   0  0  0  0  0  0  0  0  0  0  0  0
   -1.2184   -0.7383   -0.1404 C   0  0  0  0  0  0  0  0  0  0  0  0
   -2.2200    0.3288    0.0414 C   0  0  0  0  0  0  0  0  0  0  0  0
    2.2815    0.7208   -0.9039 C   0  0  0  0  0  0  0  0  0  0  0  0
    3.9468   -0.7821   -0.0067 C   0  0  0  0  0  0  0  0  0  0  0  0
   -3.5735    0.3708   -0.3434 C   0  0  0  0  0  0  0  0  0  0  0  0
   -1.9992    1.5389    0.6528 C   0  0  0  0  0  0  0  0  0  0  0  0
    3.1960    1.7722   -0.8400 C   0  0  0  0  0  0  0  0  0  0  0  0
    4.8613    0.2693    0.0572 C   0  0  0  0  0  0  0  0  0  0  0  0
   -4.3467   -0.6706   -1.0433 C   0  0  0  0  0  0  0  0  0  0  0  0
    4.4858    1.5464   -0.3595 C   0  0  0  0  0  0  0  0  0  0  0  0
   -0.8309   -0.6028    3.0045 C   0  0  0  0  0  0  0  0  0  0  0  0
   -3.4521    3.5274    1.1158 C   0  0  0  0  0  0  0  0  0  0  0  0
    1.4892   -1.7159    1.6020 H   0  0  0  0  0  0  0  0  0  0  0  0
    1.0474   -1.6073   -1.4543 H   0  0  0  0  0  0  0  0  0  0  0  0
    2.2046   -2.6307   -0.7522 H   0  0  0  0  0  0  0  0  0  0  0  0
   -0.3609   -3.5026   -0.0656 H   0  0  0  0  0  0  0  0  0  0  0  0
   -0.4180   -3.3412    1.6932 H   0  0  0  0  0  0  0  0  0  0  0  0
    1.0236   -3.9971    0.9081 H   0  0  0  0  0  0  0  0  0  0  0  0
   -1.1252    2.0020    1.0890 H   0  0  0  0  0  0  0  0  0  0  0  0
    2.9050    2.7691   -1.1644 H   0  0  0  0  0  0  0  0  0  0  0  0
    5.8679    0.0953    0.4315 H   0  0  0  0  0  0  0  0  0  0  0  0
   -5.3801   -0.3483   -1.2064 H   0  0  0  0  0  0  0  0  0  0  0  0
   -1.8450   -0.8900    2.7090 H   0  0  0  0  0  0  0  0  0  0  0  0
   -0.2942   -1.4723    3.3953 H   0  0  0  0  0  0  0  0  0  0  0  0
   -0.9032    0.1411    3.8027 H   0  0  0  0  0  0  0  0  0  0  0  0
   -3.7640    4.1653    0.2851 H   0  0  0  0  0  0  0  0  0  0  0  0
   -4.2464    3.4520    1.8626 H   0  0  0  0  0  0  0  0  0  0  0  0
   -2.5453    3.9288    1.5749 H   0  0  0  0  0  0  0  0  0  0  0  0
  1 17  1  0  0  0  0
  2 18  1  0  0  0  0
  3 24  1  0  0  0  0
  4 23  1  0  0  0  0
  5 23  1  0  0  0  0
  6  8  1  0  0  0  0
  6 25  1  0  0  0  0
  7 15  2  0  0  0  0
  8 11  1  0  0  0  0
  8 15  1  0  0  0  0
  9 10  1  0  0  0  0
  9 20  1  0  0  0  0
  9 26  1  0  0  0  0
 10 19  2  0  0  0  0
 11 12  1  0  0  0  0
 11 13  1  0  0  0  0
 11 27  1  0  0  0  0
 12 14  1  0  0  0  0
 12 28  1  0  0  0  0
 12 29  1  0  0  0  0
 13 30  1  0  0  0  0
 13 31  1  0  0  0  0
 13 32  1  0  0  0  0
 14 17  2  0  0  0  0
 14 18  1  0  0  0  0
 15 16  1  0  0  0  0
 16 19  1  0  0  0  0
 16 20  2  0  0  0  0
 17 21  1  0  0  0  0
 18 22  2  0  0  0  0
 19 23  1  0  0  0  0
 20 33  1  0  0  0  0
 21 24  2  0  0  0  0
 21 34  1  0  0  0  0
 22 24  1  0  0  0  0
 22 35  1  0  0  0  0
 23 36  1  0  0  0  0
 25 37  1  0  0  0  0
 25 38  1  0  0  0  0
 25 39  1  0  0  0  0
 26 40  1  0  0  0  0
 26 41  1  0  0  0  0
 26 42  1  0  0  0  0
M  END
> <PUBCHEM_COMPOUND_CID>
56933411

> <PUBCHEM_CONFORMER_RMSD>
0.8

> <PUBCHEM_CONFORMER_DIVERSEORDER>
1
118
58
32
217
165
235
134
216
266
117
97
53
278
247
75
218
224
289
66
21
57
159
281
11
290
284
108
160
48
14
255
151
239
178
130
16
157
6
110
201
17
241
188
55
251
162
211
174
161
179
267
63
72
167
52
286
210
111
98
158
81
205
276
94
20
29
9
199
107
185
103
277
147
246
214
128
84
187
31
112
126
100
150
65
43
135
149
265
225
262
213
231
24
105
41
124
220
104
209
163
23
141
203
285
74
280
170
186
36
233
46
272
54
183
259
221
191
208
139
122
13
204
88
254
264
292
288
243
192
172
261
189
132
70
62
200
273
120
279
154
133
28
184
25
212
33
138
90
27
95
79
15
121
39
166
113
194
85
206
137
101
144
287
61
68
258
222
270
92
227
18
127
3
202
229
153
253
223
60
190
269
102
248
34
271
129
96
143
87
250
5
44
4
140
106
234
291
119
155
125
175
196
35
123
152
244
257
169
114
232
86
40
256
8
136
283
242
164
249
237
240
156
252
73
80
198
236
89
197
182
215
263
69
177
168
42
71
67
176
148
82
195
282
50
77
26
173
91
30
181
226
56
109
10
180
99
78
193
260
207
76
145
49
228
7
230
37
12
64
115
171
2
238
131
59
116
19
47
83
268
219
245
275
146
274
51
22
142
45
38
93

> <PUBCHEM_MMFF94_PARTIAL_CHARGES>
28
1 -0.18
10 -0.71
11 0.3
12 0.14
14 -0.14
15 0.72
16 -0.09
17 0.18
18 0.18
19 0.11
2 -0.18
20 -0.3
21 -0.15
22 -0.15
23 0.86
24 0.18
25 0.28
26 0.26
3 -0.18
33 0.15
34 0.15
35 0.15
4 -0.34
5 -0.34
6 -0.32
7 -0.57
8 -0.32
9 0.31

> <PUBCHEM_EFFECTIVE_ROTOR_COUNT>
7

> <PUBCHEM_PHARMACOPHORE_FEATURES>
4
1 10 acceptor
1 7 acceptor
5 9 10 16 19 20 rings
6 14 17 18 21 22 24 rings

> <PUBCHEM_HEAVY_ATOM_COUNT>
26

> <PUBCHEM_ATOM_DEF_STEREO_COUNT>
0

> <PUBCHEM_ATOM_UDEF_STEREO_COUNT>
1

> <PUBCHEM_BOND_DEF_STEREO_COUNT>
0

> <PUBCHEM_BOND_UDEF_STEREO_COUNT>
0

> <PUBCHEM_ISOTOPIC_ATOM_COUNT>
0

> <PUBCHEM_COMPONENT_COUNT>
1

> <PUBCHEM_CACTVS_TAUTO_COUNT>
1

> <PUBCHEM_CONFORMER_ID>
0364BC2300000001

> <PUBCHEM_MMFF94_ENERGY>
61.4256

> <PUBCHEM_FEATURE_SELFOVERLAP>
20.298

> <PUBCHEM_SHAPE_FINGERPRINT>
10369192 42 12615323198512987782
10595046 47 18413387657087598892
11370993 70 18410013260471189056
11640471 11 18057335989035333120
12107183 9 17980200782008016320
12236239 1 18410570665727268167
12403260 363 18410005516655879362
12467345 10 18343299232398089735
12714826 92 17275381010995835759
12788726 201 18272654600969630643
13140716 1 18261120625637391130
14251764 38 18410860945260698656
14739800 52 18130208468152358936
15196674 1 18410293601381458908
15295992 7 17970367948336588752
15848702 105 18272085019660830250
17349148 13 18187366540575563646
17492 89 18342179933814543230
20691752 17 17458911435753165140
20715895 44 17767406781730968681
20739085 24 17896049762871907316
21033648 144 17967249797552830974
21033648 29 16226043362321521012
21033650 10 17986418683588320148
21709351 56 18266454313446561598
22393880 68 18130796642105739900
22950370 63 9871752394977679136
23557571 272 17203894037137383303
23559900 14 17201643242821150286
2838139 119 18411139169263872124
3472631 163 18128541457779041797
4340502 62 17459209399848206777
474 4 18187932746130136528
5104073 3 18334581213439068824
57724786 102 17531831081583779436
6328613 192 18188503462539970612
633830 44 18337958883047449902
9981440 41 18335423529777466370

> <PUBCHEM_SHAPE_MULTIPOLES>
499.45
10.46
3.35
1.66
3.5
0.7
0.7
5.08
-1.81
0.78
0.8
-1.43
-0.29
-1.83

> <PUBCHEM_SHAPE_SELFOVERLAP>
1028.443

> <PUBCHEM_SHAPE_VOLUME>
292.1

> <PUBCHEM_COORDINATE_TYPE>
2
5
10

$$$$
