434146682
  -OEChem-10052419512D

 27 29  0     0  0  0  0  0  0999 V2000
   -2.0000   -0.8388    0.0000 F   0  0  0  0  0  0  0  0  0  0  0  0
   -1.9872    0.0621    0.0000 F   0  0  0  0  0  0  0  0  0  0  0  0
    2.0000    0.6448    0.0000 F   0  0  0  0  0  0  0  0  0  0  0  0
    1.3934    0.4117    0.0000 F   0  0  0  0  0  0  0  0  0  0  0  0
    1.7652    1.0064    0.0000 F   0  0  0  0  0  0  0  0  0  0  0  0
    0.9944   -0.0476    0.0000 O   0  0  0  0  0  0  0  0  0  0  0  0
    0.2288   -0.1454    0.0000 N   0  0  0  0  0  0  0  0  0  0  0  0
    0.2390    0.9587    0.0000 N   0  0  0  0  0  0  0  0  0  0  0  0
    1.1816    1.5014    0.0000 N   0  0  0  0  0  0  0  0  0  0  0  0
   -0.2705   -0.9443    0.0000 C   0  0  0  0  0  0  0  0  0  0  0  0
    0.2093   -0.6890    0.0000 C   0  0  0  0  0  0  0  0  0  0  0  0
   -0.7418   -0.6720    0.0000 C   0  0  0  0  0  0  0  0  0  0  0  0
   -0.2875   -1.4879    0.0000 C   0  0  0  0  0  0  0  0  0  0  0  0
    0.6686   -0.9758    0.0000 C   0  0  0  0  0  0  0  0  0  0  0  0
   -1.2114   -0.9434    0.0000 C   0  0  0  0  0  0  0  0  0  0  0  0
   -0.7418   -0.1293    0.0000 C   0  0  0  0  0  0  0  0  0  0  0  0
    0.1710   -1.7745    0.0000 C   0  0  0  0  0  0  0  0  0  0  0  0
    0.6516   -1.5193    0.0000 C   0  0  0  0  0  0  0  0  0  0  0  0
    0.6908    0.1420    0.0000 C   0  0  0  0  0  0  0  0  0  0  0  0
    0.7103    0.6856    0.0000 C   0  0  0  0  0  0  0  0  0  0  0  0
    1.1816    0.9579    0.0000 C   0  0  0  0  0  0  0  0  0  0  0  0
   -1.6835   -0.6712    0.0000 C   0  0  0  0  0  0  0  0  0  0  0  0
   -1.2114    0.1429    0.0000 C   0  0  0  0  0  0  0  0  0  0  0  0
   -1.6835   -0.1276    0.0000 C   0  0  0  0  0  0  0  0  0  0  0  0
    1.6427    0.6695    0.0000 C   0  0  0  0  0  0  0  0  0  0  0  0
    0.2390    1.5014    0.0000 C   0  0  0  0  0  0  0  0  0  0  0  0
    0.7103    1.7745    0.0000 C   0  0  0  0  0  0  0  0  0  0  0  0
  1 22  1  0  0  0  0
  2 24  1  0  0  0  0
  3 25  1  0  0  0  0
  4 25  1  0  0  0  0
  5 25  1  0  0  0  0
  6 19  2  0  0  0  0
  7 11  1  0  0  0  0
  7 19  1  0  0  0  0
  8 20  2  0  0  0  0
  8 26  1  0  0  0  0
  9 21  2  0  0  0  0
  9 27  1  0  0  0  0
 10 11  1  0  0  0  0
 10 12  1  0  0  0  0
 10 13  2  0  0  0  0
 11 14  2  0  0  0  0
 12 15  2  0  0  0  0
 12 16  1  0  0  0  0
 13 17  1  0  0  0  0
 14 18  1  0  0  0  0
 15 22  1  0  0  0  0
 16 23  2  0  0  0  0
 17 18  2  0  0  0  0
 19 20  1  0  0  0  0
 20 21  1  0  0  0  0
 21 25  1  0  0  0  0
 22 24  2  0  0  0  0
 23 24  1  0  0  0  0
 26 27  2  0  0  0  0
M  END
> <PUBCHEM_COMPOUND_ID_TYPE>
0

> <PUBCHEM_TOTAL_CHARGE>
0

> <PUBCHEM_SUBSTANCE_ID>
434146682

> <PUBCHEM_SUBSTANCE_VERSION>
1

> <PUBCHEM_EXT_DATASOURCE_NAME>
15745

> <PUBCHEM_EXT_DATASOURCE_REGID>
27054131-90284203

> <PUBCHEM_SUBSTANCE_COMMENT>
This substance has the INFOCHEM hashcode: 27054131-90284203

> <PUBCHEM_SUBSTANCE_SYNONYM>
pyraziflumid

> <PUBCHEM_XREF_EXT_ID>
27054131-90284203

> <PUBCHEM_EXT_DATASOURCE_URL>
https://link.springer.com

> <PUBCHEM_CID_ASSOCIATIONS>
71679243  1

> <PUBCHEM_COORDINATE_TYPE>
1
3

$$$$
